 ****** HSPICE -- F-2011.09 32-BIT (Sep  5 2011) winnt ******                   
  Copyright (C) 2011 Synopsys, Inc. All Rights Reserved.                        
  Unpublished-rights reserved under US copyright laws.
  This program is protected by law and is subject to the
  terms and conditions of the license agreement from Synopsys.
  Use of this program is your acceptance to be bound by the
  license agreement. HSPICE is the trademark of Synopsys, Inc.
  Input File: SHsim.sp                                                          
  Command line options: SHsim.sp -o
  lic:  
  lic: FLEXlm: v10.8 
  lic: USER:   86184                HOSTNAME: PC2line 
  lic: HOSTID: "e86a64c8f38a 00ff6e5bbc8f 485f9955e58d 4a5f9955e58d ca5f9955e58d
 "
  lic: Using FLEXlm license file: 
  lic: D:\HSPICE\license1.dat 
  lic: Checkout 1 hspice 
  lic: License/Maintenance for hspice will expire on 31-dec-2030/2030.12 
  lic: NODE LOCKED license on hostid "e86a64c8f38a 00ff6e5bbc8f 485f9955e58d 4a5
 f
  lic:   
 Init: read install configuration file: D:\HSPICE\hspice\meta.cfg

 **warning**  runlvl smaller than 5, reset to 5  when accurate turned on
  **warning** (models\ms018_v1p7.mdl:56) Model n18 device geometries will not be checked against the limits set by lmin, lmax, wmin and wmax. To enable this check, add a period(.) to the model name(i.e. enable model selector).

 **warning**  runlvl smaller than 5, reset to 5  when accurate turned on
1****** HSPICE -- F-2011.09 32-BIT (Sep  5 2011) winnt ******                   
 ******  
 bandgap

  ******  circuit name directory
 circuit number to circuit name directory
   number circuitname                     definition         multiplier
        0 main circuit
        1 xsh.                            lsh                1.00 
        2 xs0.                            boostrap           1.00 
        3 xsh.xs0.                        boostrap           1.00 
        4 xs0.xi0.                        inv                1.00 
        5 xs0.xi1.                        inv                1.00 
        6 xsh.xs0.xi0.                    inv                1.00 
        7 xsh.xs0.xi1.                    inv                1.00 
1****** HSPICE -- F-2011.09 32-BIT (Sep  5 2011) winnt ******                   
 ******  
 bandgap

  ******  mos   model parameters tnom=  25.000 temp=  25.000 *****
 ***************************************************************************
 ***        model parameters  model name:   0:n18      model type:nmos   ***
 ***************************************************************************

   *** general parameters ***
    deriv=   0.           

   ***  level 49  model parameters  ***

       hspver=    2006.03               level=         49         
      version=       3.24            paramchk=          0         
       apwarn=          1                lite=          0         
       vgslim=          0             binUnit=          2         
       capMod=          3               xpart=          1         
       mobMod=          1              nqsMod=          0         
       stiMod=          0                 elm=          5         
     sfvtflag=          0                 tox=  3.77e-009 meter   
           xj=   1.6e-007 meter       binflag=          0         
         lmin=   1.5e-007 meter          lmax=     1e-005 meter   
         wmin=   1.9e-007 meter          wmax=     0.0001 meter   
         lref=          0 meter          wref=          0 meter   
         lint=1.57571e-008 meter          wint=-1.44505e-009 meter   
        lmult=          1               wmult=          1         
           ll=2.63528e-016                 lln=     1.1206         
           lw=-2.26256e-016                 lwn=       0.92         
          lwl=-2.05767e-022                  wl=-2.36646e-016         
          wln=       1.06                  ww=-3.64097e-014         
          wwn=   0.876847                 wwl=    -4e-021         
          dwg= -5.96e-009 m/V             dwb=   4.5e-009 m/V^1/2 
           xl=     8e-009                  xw=   2.2e-008         
           a0=       0.83                 ags=       0.32 V^-1    
           b0=     6e-008 meter            b1=          0 meter   
         keta=     -0.003 V^-1           voff=     -0.103 V       
        ngate=          0 cm^-3           vbx=          0 V       
          vbm=         -3 V                xt=  1.55e-007 meter   
         vth0=       0.35 V               nch=3.8694e+017 cm^-3   
         nsub=     6e+016 cm^-3           nlx=7.5451e-008 meter   
       gamma1=          0 V^-1/2       gamma2=          0 V^-1/2  
           k1=   0.680104 V^1/2            k2= -0.0499778         
           k3=         10                 k3b=         -3 V^-1    
           w0=5.58201e-007 meter          dvt0=        1.3         
         dvt1=   0.577163                dvt2=  -0.171755 V^-1    
        dvt0w=          0 meter^-1      dvt1w=          0 meter^-1
        dvt2w=          0 V^-1           dsub=        0.4         
         eta0=      0.028                etab=     -0.027 V^-1    
           u0=      0.034 m^2/V/sec         ua= -1.03e-009 m/V     
           ub=2.36667e-018 (m/V)^2          uc=   1.2e-010 V^-1    
         vsat=      82500 m/sec            a1=          0 v^-1    
           a2=       0.99               delta=       0.01 V       
         rdsw=    55.5497 ohm-um         prwg=        0.4 V^-1    
         prwb=      -0.24 V^-1/2           wr=          1         
         pclm=        1.2             pdiblc1=      0.025         
      pdiblc2=     0.0038             pdiblcb=          0 V^-1    
       pscbe1=  3.45e+008 V/m          pscbe2=     1e-006 V/m     
        drout=       0.56                pvag=          0         
      nfactor=       1.25                cdsc=          0 f/m^2   
        cdscb=          0 f/V/m^2       cdscd=     0.0001 f/V/m^2 
          cit=          0 f/m^2        alpha0=1.7754e-008 m/V     
        beta0=    11.1684 V               dlc=   8.5e-009 meter   
          dwc=   4.5e-008 meter           clc=     1e-007 meter   
          cle=        0.6                cgso= 3.885e-010 f/m     
         cgdo= 3.885e-010 f/m            cgbo=8.24355e-010 f/m     
         cgsl=          0 f/m            cgdl=          0 f/m     
       ckappa=        0.6                  cf=          0 f/m     
         acde=       0.64 m/V            moin=         24 V^1/2   
         toxm=  3.87e-009 m            dtoxcv=          0 m       
          vfb (not used)                alpha1=     0.1764 1/V     
         ijth=        0.1 A              noff=     1.2025         
       voffcv=          0                 tcj=   0.000842 1/K     
        tcjsw=   0.000669 1/K          tcjswg=   0.000669 1/K     
          tpb=    0.00147 V/K           tpbsw=   0.000868 V/K     
       tpbswg=   0.000868 V/K             llc=2.63528e-016         
          lwc=-2.26256e-016                lwlc=-2.05767e-022         
          wlc=-2.36646e-016                 wwc=-3.64097e-014         
         wwlc=    -4e-021                tnom=     298.15 K       
          kt1=  -0.257287 V              kt1l=    -1e-009         
          kt2=      -0.04                 ute=      -1.55         
          ua1=  1.76e-009 m/V             ub1=  -2.4e-018 (m/V)^2 
          uc1=    -1e-010 m/V^2            at=      37000 m/s     
          prt=        -55         
          using Berkeley noise model       noiMod=          2         
         noia=8.2282e+019                noib=      13327         
         noic=-2.4937e-014                  em=1.7767e+007         
           ef=      0.818                  af=          1         
           kf=          0              gdsnoi=-1.23457e-029         
          using Berkeley diodes          using ACM 
          acm=        12                 hdif=    2e-007 meter    
         ldif=    7e-008 meter             js= 3.52e-007 amp/m^2  
          jsw=    3e-013 amp/m            xti=      3.25          
           nj=    1.0392                   cj= 0.0009196 f/m^2    
           mj=     0.346                   pb=       0.7 V        
         cjsw=7.5525e-011 f/m             mjsw=     0.538          
          php (not used)                  pbsw=         1 V        
       cjgate (not used)                 cjswg=3.971e-010 f/m      
        mjswg=     0.538                pbswg=         1 V        
        lketa=  -1.7e-009               lvoff=  -3.3e-009         
          lu0=2.30577e-011                 lua=7.73498e-019         
     lnfactor=   4.5e-008                lua1=     6e-018         
         luc1=   1.7e-017             lalpha1= 7.625e-009         
        wvth0=-2.97095e-008                 wk1=-2.48968e-008         
          wu0=-3.10097e-009                wua1=  -1.1e-016         
        pvth0=  -2.5e-015                 pk1=   1.3e-015         
          pua=    -1e-024                 puc=   1.5e-024         
        pvsat=  -8.3e-010               ppclm=     3e-015         
     ppdiblc2=   2.7e-016                pua1=    -5e-025         
         puc1=    -3e-024                 pat=  -7.5e-010         
 ***************************************************************************
 ***        model parameters  model name:   0:p18      model type:pmos   ***
 ***************************************************************************

   *** general parameters ***
    deriv=   0.           

   ***  level 49  model parameters  ***

       hspver=    2006.03               level=         49         
      version=       3.24            paramchk=          0         
       apwarn=          1                lite=          0         
       vgslim=          0             binUnit=          2         
       capMod=          3               xpart=          1         
       mobMod=          1              nqsMod=          0         
       stiMod=          0                 elm=          5         
     sfvtflag=          0                 tox=  3.64e-009 meter   
           xj=   1.7e-007 meter       binflag=          0         
         lmin=   1.5e-007 meter          lmax=     1e-005 meter   
         wmin=   1.9e-007 meter          wmax=     0.0001 meter   
         lref=          0 meter          wref=          0 meter   
         lint=     1e-008 meter          wint=     8e-009 meter   
        lmult=          1               wmult=          1         
           ll=   3.4e-015                 lln=          1         
           lw= -3.36e-016                 lwn=          1         
          lwl=          0                  wl=3.59042e-015         
          wln=      1.045                  ww=  -1.9e-015         
          wwn=          1                 wwl=-1.1205e-021         
          dwg=-1.7362e-008 m/V             dwb=     2e-008 m/V^1/2 
           xl= -1.57e-008                  xw=   2.2e-008         
           a0=          1                 ags=        0.2 V^-1    
           b0=   6.3e-008 meter            b1=          0 meter   
         keta=       0.02 V^-1           voff=     -0.095 V       
        ngate= 3.168e+020 cm^-3           vbx=          0 V       
          vbm=         -3 V                xt=  1.55e-007 meter   
         vth0=     -0.382 V               nch=   5.5e+017 cm^-3   
         nsub=     6e+016 cm^-3           nlx=     9e-008 meter   
       gamma1=          0 V^-1/2       gamma2=          0 V^-1/2  
           k1=   0.587239 V^1/2            k2= 0.00709069         
           k3=        2.6                 k3b=     2.4862 V^-1    
           w0=          0 meter          dvt0=   0.719493         
         dvt1=   0.246744                dvt2=  0.0780897 V^-1    
        dvt0w=          0 meter^-1      dvt1w=     800000 meter^-1
        dvt2w=          0 V^-1           dsub=       0.56         
         eta0=       0.04                etab=     -0.025 V^-1    
           u0=   0.008661 m^2/V/sec         ua=  2.85e-010 m/V     
           ub=     1e-018 (m/V)^2          uc= -4.77e-011 V^-1    
         vsat=     100000 m/sec            a1=          0 v^-1    
           a2=       0.99               delta=       0.01 V       
         rdsw=        455 ohm-um         prwg=          0 V^-1    
         prwb=       -0.4 V^-1/2           wr=          1         
         pclm=        0.7             pdiblc1=          0         
      pdiblc2=      0.007             pdiblcb=          0 V^-1    
       pscbe1=     4e+008 V/m          pscbe2=     1e-007 V/m     
        drout=       0.56                pvag=          0         
      nfactor=        0.9                cdsc=          0 f/m^2   
        cdscb=          0 f/V/m^2       cdscd=          0 f/V/m^2 
          cit=          0 f/m^2        alpha0=     7e-008 m/V     
        beta0=    22.8424 V               dlc=  -1.5e-009 meter   
          dwc=     8e-009 meter           clc=     1e-007 meter   
          cle=        0.6                cgso=  4.41e-010 f/m     
         cgdo=  4.41e-010 f/m            cgbo=1.51786e-010 f/m     
         cgsl=          0 f/m            cgdl=          0 f/m     
       ckappa=        0.6                  cf=          0 f/m     
         acde=   0.850508 m/V            moin=    14.9534 V^1/2   
         toxm=  3.74e-009 m            dtoxcv=          0 m       
          vfb (not used)                alpha1=    7.04917 1/V     
         ijth=        0.1 A              noff=    1.43182         
       voffcv=          0                 tcj=   0.000876 1/K     
        tcjsw=   0.000745 1/K          tcjswg=   0.000745 1/K     
          tpb=    0.00153 V/K           tpbsw=    0.00117 V/K     
       tpbswg=    0.00117 V/K             llc=   3.4e-015         
          lwc= -3.36e-016                lwlc=          0         
          wlc=3.59042e-015                 wwc=  -1.9e-015         
         wwlc=-1.1205e-021                tnom=     298.15 K       
          kt1=  -0.257701 V              kt1l=    -8e-009         
          kt2= -0.0309799                 ute=   -1.27036         
          ua1=5.38663e-010 m/V             ub1=-2.071e-018 (m/V)^2 
          uc1=2.06097e-011 m/V^2            at=      10000 m/s     
          prt=         90         
          using Berkeley noise model       noiMod=          2         
         noia=3.3617e+018                noib=     195360         
         noic=5.2658e-012                  em=6.2548e+007         
           ef=     1.1307                  af=          1         
           kf=          0              gdsnoi=-1.23457e-029         
          using Berkeley diodes          using ACM 
          acm=        12                 hdif=    2e-007 meter    
         ldif=    7e-008 meter             js= 1.66e-007 amp/m^2  
          jsw=  1.2e-013 amp/m            xti=       4.5          
           nj=    1.0384                   cj= 0.0010165 f/m^2    
           mj=     0.415                   pb=     0.817 V        
         cjsw=9.3955e-011 f/m             mjsw=     0.489          
          php (not used)                  pbsw=         1 V        
       cjgate (not used)                 cjswg=4.8165e-010 f/m      
        mjswg=     0.489                pbswg=         1 V        
        lketa=  -8.5e-009               lvoff=  -1.7e-009         
          lk1=3.55321e-009                 lu0=    -2e-011         
          lua=   5.5e-018            lnfactor=     1e-007         
       lbeta0=  -7.5e-008                lkt2=    -3e-009         
        wvoff=    -2e-009               wvth0=1.26754e-008         
          wu0=1.38154e-010                 wuc=3.1668e-017         
         wua1=   1.1e-016               pketa=     5e-016         
        pvoff=    -1e-016               pvth0=  -2.5e-016         
          pua=    -2e-024                 puc=  -2.5e-024         
     pnfactor=    -5e-015                pkt2=-6.53317e-016         
         pua1= -2.37e-024                 pat=    -1e-009         
  **info** (SHsim.sp:15) DC voltage reset to initial transient source value              in source        0:vclk                new dc= -0.1800D+01
  **warning** (SHsim.sp:21) Both nodes of element vgnd are connected together; Line ignored.
 

  
  **warning** (models/SHmodel.cdl:44) Only 1 connection at node out called in element xs0.mn11.

 **warning** the following singular supplies were terminated to 1 meg resistor 
   supply       node1            node2
  vvddh                   0:vddh             defined in subckt 0                     0:0                defined in subckt 0               
  vviref                  0:viref            defined in subckt 0                     0:0                defined in subckt 0               
  vvref                   0:vref             defined in subckt 0                     0:0                defined in subckt 0               
  vvssh                   0:vssh             defined in subckt 0                     0:0                defined in subckt 0               
      
 **info** set option symb=1 internally to help for convergence.
 *****************************************************************
 ******  option summary
 ******
 runlvl  = 5         bypass  = 2         
  Opening plot unit= 79
 file=SHsim.pa0                                                                

1****** HSPICE -- F-2011.09 32-BIT (Sep  5 2011) winnt ******                   
 ******  
 bandgap

  ******  operating point information tnom=  25.000 temp=  27.000 *****
 ***** operating point status is all       simulation time is     0.     
    node    =voltage      node    =voltage      node    =voltage

 +0:clkin   =  -1.8000  0:out     =-900.0303m 0:shout   =-900.0303m
 +0:vddh    =   3.3000  0:vddl    =   1.8000  0:vin     =   0.     
 +0:viref   =  -1.6000  0:vref    =   1.6000  0:vssh    =  -3.3000 
 +0:vssl    =  -1.8000  2:iclk    =   1.8000  2:inetd4  =   1.8000 
 +2:netd4   =  -1.7985  2:netd6   =  -1.8000  2:netd7   =  -1.8000 
 +2:nets1   =   1.3364  2:nets2   =   1.8000  2:nets3   = 899.3398m
 +2:nets5   =  -1.8000  2:nets7   =  -1.8000  3:iclk    =   1.8000 
 +3:inetd4  =   1.8000  3:netd4   =  -1.7985  3:netd6   =  -1.8000 
 +3:netd7   =  -1.8000  3:nets1   =   1.3364  3:nets2   =   1.8000 
 +3:nets3   = 899.3396m 3:nets5   =  -1.8000  3:nets7   =  -1.8000 


 **** voltage sources

 subckt                                                                    
 element  0:vvref    0:vviref   0:vclk     0:vvddh    0:vvssh    0:vvddl   
  volts      1.6000    -1.6000    -1.8000     3.3000    -3.3000     1.8000 
  current   -1.6000u    1.6000u    0.        -3.3000u    3.3000u   -7.8992n
  power      2.5600u    2.5600u    0.        10.8900u   10.8900u   14.2185n

 subckt                        
 element  0:vvssl    0:vvin    
  volts     -1.8000     0.     
  current    8.1615n -262.3490p
  power     14.6907n    0.     

     total voltage source power dissipation=   26.9289u       watts




 **** mosfets


 subckt   xs0        xs0        xs0        xs0        xs0        xs0       
 element  2:mn01     2:mp02     2:mn03     2:mp04     2:mn05     2:mn06    
 model    0:n18      0:p18      0:n18      0:p18      0:n18      0:n18     
 region       Cutoff     Cutoff     Cutoff     Cutoff     Cutoff     Cutoff
  id         2.6730p  -55.0532a    7.1972p   -6.1578p    6.8011p    1.0195a
  ibs      -20.7396a -7.510e-23  -20.7396a  4.956e-27 -6.827e-23    0.     
  ibd      -20.7396a    0.       -23.1281a  253.2774f   -1.1188a -1.688e-25
  vgs      463.5526m -977.7125n  437.1077m -744.4056n  -88.4704n    0.     
  vds      463.5526m -233.3069n  900.6602m   -3.5985     1.4905m  218.7983p
  vbs       -3.1364  -233.3069n   -2.6993     0.       -88.4704n    0.     
  vth      889.8912m -370.0149m  836.7157m -370.0150m  336.5713m  336.5712m
  vdsat     46.1464m  -40.0468m   45.7606m  -40.0468m   40.2807m   40.2807m
  vod     -426.3386m  370.0139m -399.6081m  370.0142m -336.5714m -336.5712m
  beta       1.4245m  298.7068u    1.4218m  298.7068u    1.3826m    1.3826m
  gam eff  879.3706m  574.4626m  868.1671m  574.4626m  773.0195m  773.0195m
  gm        91.9312p    1.7367f  245.7558p  194.2567p  206.9777p   31.0249a
  gds      104.9419f  235.9681p  261.4018f   75.9137f    4.4672n    4.6593n
  gmb       11.0882p  587.9802a   32.1278p   65.2880p   67.8206p   10.1688a
  cdtot     15.8691f   28.9074f   15.8691f   18.3663f   24.8243f   24.8702f
  cgtot    134.4869f  241.3300f  140.4576f  241.2855f  249.4682f  249.4717f
  cstot     16.2771f   28.8212f   16.7310f   28.7569f   24.8184f   24.8260f
  cbtot    135.6470f  263.7477f  142.0648f  253.5204f  267.7040f  267.7176f
  cgs        7.7513f    8.2063f    7.7547f    8.2974f    7.7997f    7.7888f
  cgd        7.7440f    8.9726f    7.7440f    8.8216f    7.8289f    7.8444f



 subckt   xs0        xs0        xs0        xs0        xs0        xs0       
 element  2:mn07     2:mp08     2:mn09     2:mn10     2:mn11     2:mn12    
 model    0:n18      0:p18      0:n18      0:n18      0:n18      0:n18     
 region       Linear     Cutoff     Cutoff     Linear     Cutoff     Linear
  id         5.3985p -2.359e-24 -124.8045p    5.3987p -1.189e-26  140.2096p
  ibs     -2.636e-24  1.371e-27  -69.9395f -7.376e-27  -20.7396a -1.916e-25
  ibd     -5.250e-24    8.6450a -6.844e-23 -2.621e-24  -20.7396a -6.807e-23
  vgs        3.6000   900.6594m   -1.8000     3.6000    -1.8000     3.6000 
  vds        3.4064n   -2.6993    -1.8000     3.4065n -900.0303m   88.4704n
  vbs       -3.4065n    0.        -1.8000     0.        -1.8000     0.     
  vth      336.5713m -370.0150m  336.5713m  336.5712m  554.6221m  336.5712m
  vdsat      3.1158   -40.0460m   40.2807m    3.1158    43.2467m    3.1158 
  vod        3.2634     1.2707    -2.1366     3.2634    -2.3546     3.2634 
  beta     494.9657u  298.7068u    1.3826m  494.9658u    1.4154m  494.9658u
  gam eff  773.0195m  574.4626m  773.0195m  773.0195m  812.4958m  773.0195m
  gm         0.       7.490e-23    3.7984n    0.       3.883e-25    0.     
  gds        1.5938m  2.773e-26    4.3728p    1.5938m  4.330e-28    1.5938m
  gmb      896.7957f  3.175e-23    1.2318n  896.8188f  9.956e-26   23.2914p
  cdtot    946.0318f   19.3852f   24.7878f  946.0318f   20.0311f  946.0318f
  cgtot    899.3489f  507.3087f  249.4376f  899.3489f  249.3719f  899.3489f
  cstot    899.3881f   28.5870f   17.9659f  899.3881f   17.9659f  899.3881f
  cbtot    296.7206f  519.9781f  261.0198f  296.7206f  256.3846f  296.7206f
  cgs      447.4509f    8.8379f    7.7440f  447.4509f    7.7440f  447.4509f
  cgd      445.0434f    8.8216f    7.8435f  445.0434f    7.7522f  445.0434f



 subckt   xs0        xsh.xs0    xsh.xs0    xsh.xs0    xsh.xs0    xsh.xs0   
 element  2:mn13     3:mn01     3:mp02     3:mn03     3:mp04     3:mn05    
 model    0:n18      0:n18      0:p18      0:n18      0:p18      0:n18     
 region       Cutoff     Cutoff     Cutoff     Cutoff     Cutoff     Cutoff
  id         6.8011p    2.6730p  -43.0815a    7.1973p   -6.1578p    6.8011p
  ibs     -6.827e-23  -20.7396a -5.877e-23  -20.7396a  4.956e-27 -6.827e-23
  ibd       -1.1188a  -20.7396a    0.       -23.1281a  253.2774f   -1.1188a
  vgs      -81.6575n  463.5526m -926.9786n  437.1078m -744.4056n  -88.4709n
  vds        1.4905m  463.5526m -182.5730n  900.6604m   -3.5985     1.4905m
  vbs      -88.4704n   -3.1364  -182.5730n   -2.6993     0.       -88.4709n
  vth      336.5713m  889.8912m -370.0149m  836.7157m -370.0150m  336.5713m
  vdsat     40.2807m   46.1464m  -40.0468m   45.7606m  -40.0468m   40.2807m
  vod     -336.5714m -426.3386m  370.0140m -399.6079m  370.0142m -336.5714m
  beta       1.3826m    1.4245m  298.7068u    1.4218m  298.7068u    1.3826m
  gam eff  773.0195m  879.3706m  574.4626m  868.1671m  574.4626m  773.0195m
  gm       206.9778p   91.9312p    1.3590f  245.7573p  194.2567p  206.9781p
  gds        4.4672n  104.9419f  235.9680p  261.4034f   75.9137f    4.4672n
  gmb       67.8206p   11.0882p  460.1199a   32.1280p   65.2880p   67.8207p
  cdtot     24.8243f   15.8691f   28.9074f   15.8691f   18.3663f   24.8243f
  cgtot    249.4682f  134.4869f  241.3300f  140.4576f  241.2855f  249.4682f
  cstot     24.8184f   16.2771f   28.8212f   16.7310f   28.7569f   24.8184f
  cbtot    267.7040f  135.6470f  263.7477f  142.0648f  253.5204f  267.7040f
  cgs        7.7997f    7.7513f    8.2063f    7.7547f    8.2974f    7.7997f
  cgd        7.8289f    7.7440f    8.9726f    7.7440f    8.8216f    7.8289f



 subckt   xsh.xs0    xsh.xs0    xsh.xs0    xsh.xs0    xsh.xs0    xsh.xs0   
 element  3:mn06     3:mn07     3:mp08     3:mn09     3:mn10     3:mn11    
 model    0:n18      0:n18      0:p18      0:n18      0:n18      0:n18     
 region       Cutoff     Linear     Cutoff     Cutoff     Linear     Cutoff
  id         1.0195a    5.3986p -2.359e-24 -124.8045p    5.3987p -1.189e-26
  ibs        0.      -2.636e-24  1.371e-27  -69.9395f -7.376e-27  -20.7396a
  ibd     -1.688e-25 -5.250e-24    8.6450a -6.844e-23 -2.621e-24  -20.7396a
  vgs        0.         3.6000   900.6596m   -1.8000     3.6000    -1.8000 
  vds      218.7983p    3.4064n   -2.6993    -1.8000     3.4065n -900.0303m
  vbs        0.        -3.4065n    0.        -1.8000     0.        -1.8000 
  vth      336.5712m  336.5713m -370.0150m  336.5713m  336.5712m  554.6221m
  vdsat     40.2807m    3.1158   -40.0460m   40.2807m    3.1158    43.2467m
  vod     -336.5712m    3.2634     1.2707    -2.1366     3.2634    -2.3546 
  beta       1.3826m  494.9657u  298.7068u    1.3826m  494.9658u    1.4154m
  gam eff  773.0195m  773.0195m  574.4626m  773.0195m  773.0195m  812.4958m
  gm        31.0249a    0.       7.490e-23    3.7984n    0.       3.883e-25
  gds        4.6593n    1.5938m  2.773e-26    4.3728p    1.5938m  4.330e-28
  gmb       10.1688a  896.7996f  3.175e-23    1.2318n  896.8276f  9.956e-26
  cdtot     24.8702f  946.0318f   19.3852f   24.7878f  946.0318f   20.0311f
  cgtot    249.4717f  899.3489f  507.3088f  249.4376f  899.3489f  249.3719f
  cstot     24.8260f  899.3881f   28.5870f   17.9659f  899.3881f   17.9659f
  cbtot    267.7176f  296.7206f  519.9782f  261.0198f  296.7206f  256.3846f
  cgs        7.7888f  447.4509f    8.8379f    7.7440f  447.4509f    7.7440f
  cgd        7.8444f  445.0434f    8.8216f    7.8435f  445.0434f    7.7522f



 subckt   xsh.xs0    xsh.xs0    xs0.xi0    xs0.xi0    xs0.xi1    xs0.xi1   
 element  3:mn12     3:mn13     4:mpm2     4:mnm1     5:mpm2     5:mnm1    
 model    0:n18      0:n18      0:p18      0:n18      0:p18      0:n18     
 region       Linear     Cutoff     Linear     Cutoff     Linear     Cutoff
  id       140.2104p    6.8011p   -1.9171n    1.8381n   -2.0005n    1.9184n
  ibs     -1.916e-25 -6.827e-23  2.486e-25 -3.933e-25  2.594e-25 -4.105e-25
  ibd     -6.807e-23   -1.1188a  5.083e-23  -71.7260p  5.305e-23  -74.8579p
  vgs        3.6000   -81.6579n   -3.6000     0.        -3.5985     1.4906m
  vds       88.4709n    1.4905m -744.4056n    3.6000  -776.8426n    3.6000 
  vbs        0.       -88.4709n    0.         0.         0.         0.     
  vth      336.5712m  336.5713m -459.1981m  365.8435m -459.1981m  365.8435m
  vdsat      3.1158    40.2807m   -2.0438    42.4474m   -2.0429    42.4475m
  vod        3.2634  -336.5714m   -3.1408  -365.8435m   -3.1393  -364.3530m
  beta     494.9658u    1.3826m    1.2382m    4.8301m    1.2386m    4.8301m
  gam eff  773.0195m  773.0195m  608.2173m  766.6028m  608.2173m  766.6028m
  gm         0.       206.9782p   90.2012p   52.7105n   94.3088p   55.0019n
  gds        1.5938m    4.4672n    2.6006m    1.8360n    2.6004m    1.9158n
  gmb       23.2915p   67.8207p  156.9064p   12.1824n  163.8232p   12.7015n
  cdtot    946.0318f   24.8243f   12.7297f    1.6082f   12.7296f    1.6082f
  cgtot    899.3489f  249.4682f    7.7482f    2.3701f    7.7482f    2.3696f
  cstot    899.3881f   24.8184f   10.8987f    2.5314f   10.8987f    2.5314f
  cbtot    296.7206f  267.7040f    9.2736f    3.4693f    9.2736f    3.4688f
  cgs      447.4509f    7.7997f    3.8670f  760.2248a    3.8670f  760.2336a
  cgd      445.0434f    7.8289f    3.9103f  759.9589a    3.9103f  759.9588a



 subckt   xsh.xs0.xi xsh.xs0.xi xsh.xs0.xi xsh.xs0.xi
 element  6:mpm2     6:mnm1     7:mpm2     7:mnm1    
 model    0:p18      0:n18      0:p18      0:n18     
 region       Linear     Cutoff     Linear     Cutoff
  id        -1.9171n    1.8381n   -2.0005n    1.9184n
  ibs      2.486e-25 -3.933e-25  2.594e-25 -4.105e-25
  ibd      5.083e-23  -71.7260p  5.305e-23  -74.8579p
  vgs       -3.6000     0.        -3.5985     1.4906m
  vds     -744.4056n    3.6000  -776.8426n    3.6000 
  vbs        0.         0.         0.         0.     
  vth     -459.1981m  365.8435m -459.1981m  365.8435m
  vdsat     -2.0438    42.4474m   -2.0429    42.4475m
  vod       -3.1408  -365.8435m   -3.1393  -364.3530m
  beta       1.2382m    4.8301m    1.2386m    4.8301m
  gam eff  608.2173m  766.6028m  608.2173m  766.6028m
  gm        90.2012p   52.7105n   94.3088p   55.0019n
  gds        2.6006m    1.8360n    2.6004m    1.9158n
  gmb      156.9064p   12.1824n  163.8232p   12.7015n
  cdtot     12.7297f    1.6082f   12.7296f    1.6082f
  cgtot      7.7482f    2.3701f    7.7482f    2.3696f
  cstot     10.8987f    2.5314f   10.8987f    2.5314f
  cbtot      9.2736f    3.4693f    9.2736f    3.4688f
  cgs        3.8670f  760.2248a    3.8670f  760.2336a
  cgd        3.9103f  759.9589a    3.9103f  759.9588a



 ******  
 bandgap

  ******  transient analysis tnom=  25.000 temp=  27.000 *****
   powerall=  3.4309E-03  from=  0.0000E+00     to=  5.0000E-05

          ***** job concluded
1****** HSPICE -- F-2011.09 32-BIT (Sep  5 2011) winnt ******                   
 ******  
 bandgap

  ******  job statistics summary tnom=  25.000 temp=  27.000 *****

  ******  HSPICE Threads Information  ******

  Command Line Threads Count :     1
  Available CPU Count        :     8
  Actual Threads Count       :     1


  ******  Circuit Statistics  ******
  # nodes       =      99 # elements   =      51
  # resistors   =       4 # capacitors =       5 # inductors   =       0
  # mutual_inds =       0 # vccs       =       0 # vcvs        =       0
  # cccs        =       0 # ccvs       =       0 # volt_srcs   =       8
  # curr_srcs   =       0 # diodes     =       0 # bjts        =       0
  # jfets       =       0 # mosfets    =      34 # U elements  =       0
  # T elements  =       0 # W elements =       0 # B elements  =       0
  # S elements  =       0 # P elements =       0 # va device   =       0
  # vector_srcs =       0


  ******  Runtime Statistics (seconds)  ******

  analysis           time    # points   tot. iter  conv.iter
  op point           0.01           1          26
  transient          1.27      500001       31033       10321 rev=       897
  readin             0.08
  errchk             0.01
  setup              0.02
  output             0.00


           peak memory used         59.16 megabytes
           total cpu time            1.41 seconds
           total elapsed time        2.22 seconds
           job started at     22:10:35 01/08/2021
           job ended   at     22:10:37 01/08/2021


  lic: Release hspice token(s) 
