***** HSPICE -- F-2011.09 32-BIT (Sep  5 2011) winnt ******
 Input File: test.sp
 lic:
 lic: FLEXlm: v10.8
 lic: USER:   86184                HOSTNAME: PC2line
 lic: HOSTID: "e86a64c8f38a 00ff6e5bbc8f 485f9955e58d 4a5f9955e58d ca5f9955e58d"
 lic: Using FLEXlm license file:
 lic: D:\HSPICE\license1.dat
 lic: Checkout 1 hspice
 lic: License/Maintenance for hspice will expire on 31-dec-2030/2030.12
 lic: NODE LOCKED license on hostid "e86a64c8f38a 00ff6e5bbc8f 485f9955e58d 4a5f
 lic:
 init: begin read circuit files,  cpu clock=  8.70E-01
       option search   = D:\HSPICE\hspice\PARTS\behave\
       option search   = D:\HSPICE\hspice\PARTS\behave\
       option search   = D:\HSPICE\hspice\PARTS\AD\
       option search   = D:\HSPICE\hspice\PARTS\XILINX\
       option search   = D:\HSPICE\hspice\PARTS\TLINE\
       option search   = D:\HSPICE\hspice\PARTS\TI\
       option search   = D:\HSPICE\hspice\PARTS\SIGNET\
       option search   = D:\HSPICE\hspice\PARTS\PCI\
       option search   = D:\HSPICE\hspice\PARTS\LIN_TECH\
       option search   = D:\HSPICE\hspice\PARTS\FET\
       option search   = D:\HSPICE\hspice\PARTS\DIO\
       option search   = D:\HSPICE\hspice\PARTS\COMLINE\
       option search   = D:\HSPICE\hspice\PARTS\BURR_BRN\
       option search   = D:\HSPICE\hspice\PARTS\BJT\
       option search   = D:\HSPICE\hspice\PARTS\behave\
       option search   = D:\HSPICE\hspice\PARTS\AD\
       option post     =     2.00
       option runlvl
       option post
       option accura
       option probe
 init: end read circuit files,  cpu clock=  9.38E-01 memory=    706 kb
 init: begin check errors,  cpu clock=  9.38E-01
 init: end check errors,  cpu clock=  9.57E-01 memory=   3639 kb
 init: begin setup matrix, pivot=     0 cpu clock=  9.57E-01
       establish matrix -- done,  cpu clock=  9.68E-01 memory=   3665 kb
       re-order matrix -- done,  cpu clock=  9.76E-01 memory=   3665 kb
 init: end setup matrix,  cpu clock=  9.81E-01 memory=   4198 kb
 dcop: begin dcop,  cpu clock=  9.88E-01
 dcop: end dcop,  cpu clock=  1.20E+00 memory=   4198 kb  tot_iter=     228
 output: test.mt0
 sweep: tran tran0    begin, stop_t=  2.50E-05 #sweeps=**** cpu clock=  1.22E+00
 tran: time= 2.5002E-06 tot_iter=    6910 conv_iter=    2397 cpu clock= 2.90E+00
 tran: time= 5.0001E-06 tot_iter=   13358 conv_iter=    4622 cpu clock= 4.37E+00
 tran: time= 7.5002E-06 tot_iter=   20173 conv_iter=    6993 cpu clock= 6.01E+00
 tran: time= 1.0000E-05 tot_iter=   26701 conv_iter=    9256 cpu clock= 7.47E+00
 tran: time= 1.2500E-05 tot_iter=   33028 conv_iter=   11456 cpu clock= 8.97E+00
 tran: time= 1.5000E-05 tot_iter=   39418 conv_iter=   13664 cpu clock= 1.04E+01
 tran: time= 1.7500E-05 tot_iter=   45924 conv_iter=   15908 cpu clock= 1.20E+01
 tran: time= 2.0000E-05 tot_iter=   51946 conv_iter=   17971 cpu clock= 1.33E+01
 tran: time= 2.2500E-05 tot_iter=   58280 conv_iter=   20158 cpu clock= 1.48E+01
 tran: time= 2.5000E-05 tot_iter=   64609 conv_iter=   22360 cpu clock= 1.62E+01
 sweep: tran tran0    end,  cpu clock=  1.62E+01 memory=   4208 kb
>info:         ***** hspice job concluded
 lic: Release hspice token(s)
