 ****** HSPICE -- F-2011.09 32-BIT (Sep  5 2011) winnt ******                   
  Copyright (C) 2011 Synopsys, Inc. All Rights Reserved.                        
  Unpublished-rights reserved under US copyright laws.
  This program is protected by law and is subject to the
  terms and conditions of the license agreement from Synopsys.
  Use of this program is your acceptance to be bound by the
  license agreement. HSPICE is the trademark of Synopsys, Inc.
  Input File: test.sp                                                           
  Command line options: test.sp -o
  lic:  
  lic: FLEXlm: v10.8 
  lic: USER:   86184                HOSTNAME: PC2line 
  lic: HOSTID: "e86a64c8f38a 00ff6e5bbc8f 485f9955e58d 4a5f9955e58d ca5f9955e58d
 "
  lic: Using FLEXlm license file: 
  lic: D:\HSPICE\license1.dat 
  lic: Checkout 1 hspice 
  lic: License/Maintenance for hspice will expire on 31-dec-2030/2030.12 
  lic: NODE LOCKED license on hostid "e86a64c8f38a 00ff6e5bbc8f 485f9955e58d 4a5
 f
  lic:   
 Init: read install configuration file: D:\HSPICE\hspice\meta.cfg

 **warning**  runlvl smaller than 5, reset to 5  when accurate turned on
  **warning** (models\ms018_v1p7.mdl:56) Model n18 device geometries will not be checked against the limits set by lmin, lmax, wmin and wmax. To enable this check, add a period(.) to the model name(i.e. enable model selector).

 **warning**  runlvl smaller than 5, reset to 5  when accurate turned on
1****** HSPICE -- F-2011.09 32-BIT (Sep  5 2011) winnt ******                   
 ******  
 bandgap

  ******  circuit name directory
 circuit number to circuit name directory
   number circuitname                     definition         multiplier
        0 main circuit
        1 xclk.                           clocka             1.00 
        2 xsh.                            lsh                1.00 
        3 xsubadc.                        subadc             1.00 
        4 xsubdac.                        subdac             1.00 
        5 xclk.xa1.                       nand               1.00 
        6 xclk.xa2.                       nand               1.00 
        7 xclk.xa3.                       nand               1.00 
        8 xclk.xa4.                       nand               1.00 
        9 xclk.xi1.                       inv                1.00 
       10 xclk.xi2.                       inv1               1.00 
       11 xclk.xi3.                       inv                1.00 
       12 xclk.xi4.                       inv1               1.00 
       13 xclk.xi5.                       inv                1.00 
       14 xclk.xi6.                       inv                1.00 
       15 xclk.xb1.                       buffer             1.00 
       16 xclk.xb2.                       buffer             1.00 
       17 xclk.xb3.                       buffer             1.00 
       18 xclk.xb4.                       buffer             1.00 
       19 xsh.xs0.                        boostrap           1.00 
       20 xsubadc.xc1.                    comparator_preamp
                                                                 1.00 
       21 xsubadc.xc2.                    comparator_preamp
                                                                 1.00 
       22 xsubadc.xc3.                    comparator_preamp
                                                                 1.00 
       23 xsubadc.xc4.                    comparator_preamp
                                                                 1.00 
       24 xsubadc.xc5.                    comparator_preamp
                                                                 1.00 
       25 xsubadc.xc6.                    comparator_preamp
                                                                 1.00 
       26 xsubdac.xs1.                    boostrap           1.00 
       27 xsubdac.xs2.                    boostrap           1.00 
       28 xsubdac.xs3.                    boostrap           1.00 
       29 xsubdac.xs4.                    boostrap           1.00 
       30 xsubdac.xs5.                    boostrap           1.00 
       31 xsubdac.xs6.                    boostrap           1.00 
       32 xsubdac.xi.                     opamp              1.00 
       33 xclk.xi2.x1.                    inv2               1.00 
       34 xclk.xi2.x2.                    inv2               1.00 
       35 xclk.xi2.x3.                    inv2               1.00 
       36 xclk.xi2.x4.                    inv2               1.00 
       37 xclk.xi2.x5.                    inv2               1.00 
       38 xclk.xi2.x6.                    inv2               1.00 
       39 xclk.xi2.x7.                    inv2               1.00 
       40 xclk.xi4.x1.                    inv2               1.00 
       41 xclk.xi4.x2.                    inv2               1.00 
       42 xclk.xi4.x3.                    inv2               1.00 
       43 xclk.xi4.x4.                    inv2               1.00 
       44 xclk.xi4.x5.                    inv2               1.00 
       45 xclk.xi4.x6.                    inv2               1.00 
       46 xclk.xi4.x7.                    inv2               1.00 
       47 xclk.xb1.x1.                    inv                1.00 
       48 xclk.xb1.x2.                    inv                1.00 
       49 xclk.xb2.x1.                    inv                1.00 
       50 xclk.xb2.x2.                    inv                1.00 
       51 xclk.xb3.x1.                    inv                1.00 
       52 xclk.xb3.x2.                    inv                1.00 
       53 xclk.xb4.x1.                    inv                1.00 
       54 xclk.xb4.x2.                    inv                1.00 
       55 xsh.xs0.xi0.                    inv                1.00 
       56 xsh.xs0.xi1.                    inv                1.00 
       57 xsubadc.xc1.xi43.               comparatormove     1.00 
       58 xsubadc.xc1.xi42.               pre_amp            1.00 
       59 xsubadc.xc2.xi43.               comparatormove     1.00 
       60 xsubadc.xc2.xi42.               pre_amp            1.00 
       61 xsubadc.xc3.xi43.               comparatormove     1.00 
       62 xsubadc.xc3.xi42.               pre_amp            1.00 
       63 xsubadc.xc4.xi43.               comparatormove     1.00 
       64 xsubadc.xc4.xi42.               pre_amp            1.00 
       65 xsubadc.xc5.xi43.               comparatormove     1.00 
       66 xsubadc.xc5.xi42.               pre_amp            1.00 
       67 xsubadc.xc6.xi43.               comparatormove     1.00 
       68 xsubadc.xc6.xi42.               pre_amp            1.00 
       69 xsubdac.xs1.xi0.                inv                1.00 
       70 xsubdac.xs1.xi1.                inv                1.00 
       71 xsubdac.xs2.xi0.                inv                1.00 
       72 xsubdac.xs2.xi1.                inv                1.00 
       73 xsubdac.xs3.xi0.                inv                1.00 
       74 xsubdac.xs3.xi1.                inv                1.00 
       75 xsubdac.xs4.xi0.                inv                1.00 
       76 xsubdac.xs4.xi1.                inv                1.00 
       77 xsubdac.xs5.xi0.                inv                1.00 
       78 xsubdac.xs5.xi1.                inv                1.00 
       79 xsubdac.xs6.xi0.                inv                1.00 
       80 xsubdac.xs6.xi1.                inv                1.00 
       81 xsubadc.xc1.xi43.xi2.           inv                1.00 
       82 xsubadc.xc1.xi43.xi3.           inv                1.00 
       83 xsubadc.xc1.xi43.xi0.           nand               1.00 
       84 xsubadc.xc1.xi43.xi1.           nand               1.00 
       85 xsubadc.xc2.xi43.xi2.           inv                1.00 
       86 xsubadc.xc2.xi43.xi3.           inv                1.00 
       87 xsubadc.xc2.xi43.xi0.           nand               1.00 
       88 xsubadc.xc2.xi43.xi1.           nand               1.00 
       89 xsubadc.xc3.xi43.xi2.           inv                1.00 
       90 xsubadc.xc3.xi43.xi3.           inv                1.00 
       91 xsubadc.xc3.xi43.xi0.           nand               1.00 
       92 xsubadc.xc3.xi43.xi1.           nand               1.00 
       93 xsubadc.xc4.xi43.xi2.           inv                1.00 
       94 xsubadc.xc4.xi43.xi3.           inv                1.00 
       95 xsubadc.xc4.xi43.xi0.           nand               1.00 
       96 xsubadc.xc4.xi43.xi1.           nand               1.00 
       97 xsubadc.xc5.xi43.xi2.           inv                1.00 
       98 xsubadc.xc5.xi43.xi3.           inv                1.00 
       99 xsubadc.xc5.xi43.xi0.           nand               1.00 
      100 xsubadc.xc5.xi43.xi1.           nand               1.00 
      101 xsubadc.xc6.xi43.xi2.           inv                1.00 
      102 xsubadc.xc6.xi43.xi3.           inv                1.00 
      103 xsubadc.xc6.xi43.xi0.           nand               1.00 
      104 xsubadc.xc6.xi43.xi1.           nand               1.00 
1****** HSPICE -- F-2011.09 32-BIT (Sep  5 2011) winnt ******                   
 ******  
 bandgap

  ******  mos   model parameters tnom=  25.000 temp=  25.000 *****
 ***************************************************************************
 ***        model parameters  model name:   0:n18      model type:nmos   ***
 ***************************************************************************

   *** general parameters ***
    deriv=   0.           

   ***  level 49  model parameters  ***

       hspver=    2006.03               level=         49         
      version=       3.24            paramchk=          0         
       apwarn=          1                lite=          0         
       vgslim=          0             binUnit=          2         
       capMod=          3               xpart=          1         
       mobMod=          1              nqsMod=          0         
       stiMod=          0                 elm=          5         
     sfvtflag=          0                 tox=  3.77e-009 meter   
           xj=   1.6e-007 meter       binflag=          0         
         lmin=   1.5e-007 meter          lmax=     1e-005 meter   
         wmin=   1.9e-007 meter          wmax=     0.0001 meter   
         lref=          0 meter          wref=          0 meter   
         lint=1.57571e-008 meter          wint=-1.44505e-009 meter   
        lmult=          1               wmult=          1         
           ll=2.63528e-016                 lln=     1.1206         
           lw=-2.26256e-016                 lwn=       0.92         
          lwl=-2.05767e-022                  wl=-2.36646e-016         
          wln=       1.06                  ww=-3.64097e-014         
          wwn=   0.876847                 wwl=    -4e-021         
          dwg= -5.96e-009 m/V             dwb=   4.5e-009 m/V^1/2 
           xl=     8e-009                  xw=   2.2e-008         
           a0=       0.83                 ags=       0.32 V^-1    
           b0=     6e-008 meter            b1=          0 meter   
         keta=     -0.003 V^-1           voff=     -0.103 V       
        ngate=          0 cm^-3           vbx=          0 V       
          vbm=         -3 V                xt=  1.55e-007 meter   
         vth0=       0.35 V               nch=3.8694e+017 cm^-3   
         nsub=     6e+016 cm^-3           nlx=7.5451e-008 meter   
       gamma1=          0 V^-1/2       gamma2=          0 V^-1/2  
           k1=   0.680104 V^1/2            k2= -0.0499778         
           k3=         10                 k3b=         -3 V^-1    
           w0=5.58201e-007 meter          dvt0=        1.3         
         dvt1=   0.577163                dvt2=  -0.171755 V^-1    
        dvt0w=          0 meter^-1      dvt1w=          0 meter^-1
        dvt2w=          0 V^-1           dsub=        0.4         
         eta0=      0.028                etab=     -0.027 V^-1    
           u0=      0.034 m^2/V/sec         ua= -1.03e-009 m/V     
           ub=2.36667e-018 (m/V)^2          uc=   1.2e-010 V^-1    
         vsat=      82500 m/sec            a1=          0 v^-1    
           a2=       0.99               delta=       0.01 V       
         rdsw=    55.5497 ohm-um         prwg=        0.4 V^-1    
         prwb=      -0.24 V^-1/2           wr=          1         
         pclm=        1.2             pdiblc1=      0.025         
      pdiblc2=     0.0038             pdiblcb=          0 V^-1    
       pscbe1=  3.45e+008 V/m          pscbe2=     1e-006 V/m     
        drout=       0.56                pvag=          0         
      nfactor=       1.25                cdsc=          0 f/m^2   
        cdscb=          0 f/V/m^2       cdscd=     0.0001 f/V/m^2 
          cit=          0 f/m^2        alpha0=1.7754e-008 m/V     
        beta0=    11.1684 V               dlc=   8.5e-009 meter   
          dwc=   4.5e-008 meter           clc=     1e-007 meter   
          cle=        0.6                cgso= 3.885e-010 f/m     
         cgdo= 3.885e-010 f/m            cgbo=8.24355e-010 f/m     
         cgsl=          0 f/m            cgdl=          0 f/m     
       ckappa=        0.6                  cf=          0 f/m     
         acde=       0.64 m/V            moin=         24 V^1/2   
         toxm=  3.87e-009 m            dtoxcv=          0 m       
          vfb (not used)                alpha1=     0.1764 1/V     
         ijth=        0.1 A              noff=     1.2025         
       voffcv=          0                 tcj=   0.000842 1/K     
        tcjsw=   0.000669 1/K          tcjswg=   0.000669 1/K     
          tpb=    0.00147 V/K           tpbsw=   0.000868 V/K     
       tpbswg=   0.000868 V/K             llc=2.63528e-016         
          lwc=-2.26256e-016                lwlc=-2.05767e-022         
          wlc=-2.36646e-016                 wwc=-3.64097e-014         
         wwlc=    -4e-021                tnom=     298.15 K       
          kt1=  -0.257287 V              kt1l=    -1e-009         
          kt2=      -0.04                 ute=      -1.55         
          ua1=  1.76e-009 m/V             ub1=  -2.4e-018 (m/V)^2 
          uc1=    -1e-010 m/V^2            at=      37000 m/s     
          prt=        -55         
          using Berkeley noise model       noiMod=          2         
         noia=8.2282e+019                noib=      13327         
         noic=-2.4937e-014                  em=1.7767e+007         
           ef=      0.818                  af=          1         
           kf=          0              gdsnoi=-1.23457e-029         
          using Berkeley diodes          using ACM 
          acm=        12                 hdif=    2e-007 meter    
         ldif=    7e-008 meter             js= 3.52e-007 amp/m^2  
          jsw=    3e-013 amp/m            xti=      3.25          
           nj=    1.0392                   cj= 0.0009196 f/m^2    
           mj=     0.346                   pb=       0.7 V        
         cjsw=7.5525e-011 f/m             mjsw=     0.538          
          php (not used)                  pbsw=         1 V        
       cjgate (not used)                 cjswg=3.971e-010 f/m      
        mjswg=     0.538                pbswg=         1 V        
        lketa=  -1.7e-009               lvoff=  -3.3e-009         
          lu0=2.30577e-011                 lua=7.73498e-019         
     lnfactor=   4.5e-008                lua1=     6e-018         
         luc1=   1.7e-017             lalpha1= 7.625e-009         
        wvth0=-2.97095e-008                 wk1=-2.48968e-008         
          wu0=-3.10097e-009                wua1=  -1.1e-016         
        pvth0=  -2.5e-015                 pk1=   1.3e-015         
          pua=    -1e-024                 puc=   1.5e-024         
        pvsat=  -8.3e-010               ppclm=     3e-015         
     ppdiblc2=   2.7e-016                pua1=    -5e-025         
         puc1=    -3e-024                 pat=  -7.5e-010         
 ***************************************************************************
 ***        model parameters  model name:   0:p18      model type:pmos   ***
 ***************************************************************************

   *** general parameters ***
    deriv=   0.           

   ***  level 49  model parameters  ***

       hspver=    2006.03               level=         49         
      version=       3.24            paramchk=          0         
       apwarn=          1                lite=          0         
       vgslim=          0             binUnit=          2         
       capMod=          3               xpart=          1         
       mobMod=          1              nqsMod=          0         
       stiMod=          0                 elm=          5         
     sfvtflag=          0                 tox=  3.64e-009 meter   
           xj=   1.7e-007 meter       binflag=          0         
         lmin=   1.5e-007 meter          lmax=     1e-005 meter   
         wmin=   1.9e-007 meter          wmax=     0.0001 meter   
         lref=          0 meter          wref=          0 meter   
         lint=     1e-008 meter          wint=     8e-009 meter   
        lmult=          1               wmult=          1         
           ll=   3.4e-015                 lln=          1         
           lw= -3.36e-016                 lwn=          1         
          lwl=          0                  wl=3.59042e-015         
          wln=      1.045                  ww=  -1.9e-015         
          wwn=          1                 wwl=-1.1205e-021         
          dwg=-1.7362e-008 m/V             dwb=     2e-008 m/V^1/2 
           xl= -1.57e-008                  xw=   2.2e-008         
           a0=          1                 ags=        0.2 V^-1    
           b0=   6.3e-008 meter            b1=          0 meter   
         keta=       0.02 V^-1           voff=     -0.095 V       
        ngate= 3.168e+020 cm^-3           vbx=          0 V       
          vbm=         -3 V                xt=  1.55e-007 meter   
         vth0=     -0.382 V               nch=   5.5e+017 cm^-3   
         nsub=     6e+016 cm^-3           nlx=     9e-008 meter   
       gamma1=          0 V^-1/2       gamma2=          0 V^-1/2  
           k1=   0.587239 V^1/2            k2= 0.00709069         
           k3=        2.6                 k3b=     2.4862 V^-1    
           w0=          0 meter          dvt0=   0.719493         
         dvt1=   0.246744                dvt2=  0.0780897 V^-1    
        dvt0w=          0 meter^-1      dvt1w=     800000 meter^-1
        dvt2w=          0 V^-1           dsub=       0.56         
         eta0=       0.04                etab=     -0.025 V^-1    
           u0=   0.008661 m^2/V/sec         ua=  2.85e-010 m/V     
           ub=     1e-018 (m/V)^2          uc= -4.77e-011 V^-1    
         vsat=     100000 m/sec            a1=          0 v^-1    
           a2=       0.99               delta=       0.01 V       
         rdsw=        455 ohm-um         prwg=          0 V^-1    
         prwb=       -0.4 V^-1/2           wr=          1         
         pclm=        0.7             pdiblc1=          0         
      pdiblc2=      0.007             pdiblcb=          0 V^-1    
       pscbe1=     4e+008 V/m          pscbe2=     1e-007 V/m     
        drout=       0.56                pvag=          0         
      nfactor=        0.9                cdsc=          0 f/m^2   
        cdscb=          0 f/V/m^2       cdscd=          0 f/V/m^2 
          cit=          0 f/m^2        alpha0=     7e-008 m/V     
        beta0=    22.8424 V               dlc=  -1.5e-009 meter   
          dwc=     8e-009 meter           clc=     1e-007 meter   
          cle=        0.6                cgso=  4.41e-010 f/m     
         cgdo=  4.41e-010 f/m            cgbo=1.51786e-010 f/m     
         cgsl=          0 f/m            cgdl=          0 f/m     
       ckappa=        0.6                  cf=          0 f/m     
         acde=   0.850508 m/V            moin=    14.9534 V^1/2   
         toxm=  3.74e-009 m            dtoxcv=          0 m       
          vfb (not used)                alpha1=    7.04917 1/V     
         ijth=        0.1 A              noff=    1.43182         
       voffcv=          0                 tcj=   0.000876 1/K     
        tcjsw=   0.000745 1/K          tcjswg=   0.000745 1/K     
          tpb=    0.00153 V/K           tpbsw=    0.00117 V/K     
       tpbswg=    0.00117 V/K             llc=   3.4e-015         
          lwc= -3.36e-016                lwlc=          0         
          wlc=3.59042e-015                 wwc=  -1.9e-015         
         wwlc=-1.1205e-021                tnom=     298.15 K       
          kt1=  -0.257701 V              kt1l=    -8e-009         
          kt2= -0.0309799                 ute=   -1.27036         
          ua1=5.38663e-010 m/V             ub1=-2.071e-018 (m/V)^2 
          uc1=2.06097e-011 m/V^2            at=      10000 m/s     
          prt=         90         
          using Berkeley noise model       noiMod=          2         
         noia=3.3617e+018                noib=     195360         
         noic=5.2658e-012                  em=6.2548e+007         
           ef=     1.1307                  af=          1         
           kf=          0              gdsnoi=-1.23457e-029         
          using Berkeley diodes          using ACM 
          acm=        12                 hdif=    2e-007 meter    
         ldif=    7e-008 meter             js= 1.66e-007 amp/m^2  
          jsw=  1.2e-013 amp/m            xti=       4.5          
           nj=    1.0384                   cj= 0.0010165 f/m^2    
           mj=     0.415                   pb=     0.817 V        
         cjsw=9.3955e-011 f/m             mjsw=     0.489          
          php (not used)                  pbsw=         1 V        
       cjgate (not used)                 cjswg=4.8165e-010 f/m      
        mjswg=     0.489                pbswg=         1 V        
        lketa=  -8.5e-009               lvoff=  -1.7e-009         
          lk1=3.55321e-009                 lu0=    -2e-011         
          lua=   5.5e-018            lnfactor=     1e-007         
       lbeta0=  -7.5e-008                lkt2=    -3e-009         
        wvoff=    -2e-009               wvth0=1.26754e-008         
          wu0=1.38154e-010                 wuc=3.1668e-017         
         wua1=   1.1e-016               pketa=     5e-016         
        pvoff=    -1e-016               pvth0=  -2.5e-016         
          pua=    -2e-024                 puc=  -2.5e-024         
     pnfactor=    -5e-015                pkt2=-6.53317e-016         
         pua1= -2.37e-024                 pat=    -1e-009         
 ***************************************************************************
 *** common model parameters  model name:  32:n08      model type:nmos   ***
 ***************************************************************************
     names  values   units     names  values   units     names  values   units
     -----  ------   -----     -----  ------   -----     -----  ------   -----

   1*** geometry parameters ***
       ld=  16.00n meters      lmlt=   1.00                wd=   0.    meters 
     wmlt=   1.00                xl=   0.    meters        xw=   0.    meters 
     lref=   0.    meters      wref=   0.    meters      lref=   0.    meters 
     wref=   0.    meters     xlref=   0.    meters     xwref=   0.    meters 
     lmin=   0.    meters      wmin=   0.    meters      lmax=   0.    meters 
     wmax=   0.    meters 

   2*** threshold voltage parameters ***
      vto= 700.00m volts        nss=   0.    1/cm**2      tpg=   1.00         
      phi= 700.00m volts      gamma= 400.00m v**0.5      bulk=  gnd           
    ngate=   0.    cm**3       nsub= 2.9e+16 1/cm**3   delvto=   0.    volts  

   3*** gate overlap capacitance parameters ***
     cgbo= 700.00p f/meter     cgdo= 220.00p f/meter     cgso= 220.00p f/meter
     meto=   0.    meters 

   4*** gate capacitance parameters ***
    capop=   2.00               cf1=   0.    volts        cf2= 100.00m volts  
      cf3=   1.00  volts        cf4=  50.00               cf5= 666.67m        
      cf6= 500.00               xqc= 500.00m              tox=  14.00n meters 
      cox=   2.47m f/m**2 

   5*** diffusion parasitic parameters ***
      acm=   0.                  is=  10.00f amps          js=   0.    a/m**2 
      jsw=   0.    amp/m        nds=   1.00               cbd=   0.    farad  
      cbs=   0.    farad         cj= 770.00u f/m**2      cjsw= 380.00p f/m    
   cjgate= 380.00p f/m           mj= 500.00m             mjsw= 380.00m        
       pb= 800.00m volts        php= 800.00m volts         tt=   0.    secs   
     hdif=   0.    meters      ldif=   0.    meters        rd=   0.    ohms   
       rs=   0.    ohms         rsh=   0.    ohms/sq       fc=   0.           
    alpha=   0.                 vcr=   0.    volts      iirat=   0.           
      rdc=   0.    ohms         rsc=   0.    ohms           n=   1.00         
     vnds=  -1.00  volts  

   6*** temperature effect parameters ***
     tlev=   0.               tlevc=   0.                  eg=   1.11  ev     
     gap1= 702.00u ev/deg      gap2=   1.11k deg          xti=   0.           
      bex=  -1.50               tcv=   0.    v/deg k      trd=   0.    /deg   
      trs=   0.    /deg         cta=   0.    /deg         ctp=   0.    /deg   

   7*** noise parameters ***
       kf=   0.                  af=   1.00              nlev=   2.00         
   gdsnoi=   1.00         

   ***  level  1  model parameters  ***

   lambda=  40.00m /v            kp= 110.00u a/v**2 
 ***************************************************************************
 *** common model parameters  model name:  32:p08      model type:pmos   ***
 ***************************************************************************
     names  values   units     names  values   units     names  values   units
     -----  ------   -----     -----  ------   -----     -----  ------   -----

   1*** geometry parameters ***
       ld=  14.00n meters      lmlt=   1.00                wd=   0.    meters 
     wmlt=   1.00                xl=   0.    meters        xw=   0.    meters 
     lref=   0.    meters      wref=   0.    meters      lref=   0.    meters 
     wref=   0.    meters     xlref=   0.    meters     xwref=   0.    meters 
     lmin=   0.    meters      wmin=   0.    meters      lmax=   0.    meters 
     wmax=   0.    meters 

   2*** threshold voltage parameters ***
      vto=-700.00m volts        nss=   0.    1/cm**2      tpg=   1.00         
      phi= 800.00m volts      gamma= 570.00m v**0.5      bulk=  gnd           
    ngate=   0.    cm**3       nsub= 5.9e+16 1/cm**3   delvto=   0.    volts  

   3*** gate overlap capacitance parameters ***
     cgbo= 700.00p f/meter     cgdo= 220.00p f/meter     cgso= 220.00p f/meter
     meto=   0.    meters 

   4*** gate capacitance parameters ***
    capop=   2.00               cf1=   0.    volts        cf2= 100.00m volts  
      cf3=   1.00  volts        cf4=  50.00               cf5= 666.67m        
      cf6= 500.00               xqc= 500.00m              tox=  14.00n meters 
      cox=   2.47m f/m**2 

   5*** diffusion parasitic parameters ***
      acm=   0.                  is=  10.00f amps          js=   0.    a/m**2 
      jsw=   0.    amp/m        nds=   1.00               cbd=   0.    farad  
      cbs=   0.    farad         cj= 560.00u f/m**2      cjsw= 350.00p f/m    
   cjgate= 350.00p f/m           mj= 500.00m             mjsw= 350.00m        
       pb= 800.00m volts        php= 800.00m volts         tt=   0.    secs   
     hdif=   0.    meters      ldif=   0.    meters        rd=   0.    ohms   
       rs=   0.    ohms         rsh=   0.    ohms/sq       fc=   0.           
    alpha=   0.                 vcr=   0.    volts      iirat=   0.           
      rdc=   0.    ohms         rsc=   0.    ohms           n=   1.00         
     vnds=  -1.00  volts  

   6*** temperature effect parameters ***
     tlev=   0.               tlevc=   0.                  eg=   1.11  ev     
     gap1= 702.00u ev/deg      gap2=   1.11k deg          xti=   0.           
      bex=  -1.50               tcv=   0.    v/deg k      trd=   0.    /deg   
      trs=   0.    /deg         cta=   0.    /deg         ctp=   0.    /deg   

   7*** noise parameters ***
       kf=   0.                  af=   1.00              nlev=   2.00         
   gdsnoi=   1.00         

   ***  level  1  model parameters  ***

   lambda=  50.00m /v            kp=  50.00u a/v**2 
  **info** (test.sp:17) DC voltage reset to initial transient source value              in source        0:vclk                new dc= -0.1800D+01
  **warning** (test.sp:23) Both nodes of element vgnd are connected together; Line ignored.
 

  **warning** (test.sp:33) Unable to find referenced node fo1; Output variable ignored. Specify a valid node.
  **warning** (test.sp:33) .print/.probe statement contains unused output; the unused output is ignored.
  
  **warning** (models/SHmodel.cdl:39) Only 1 connection at node netd6 called in element xsh.xs0.mn06.

 **warning** the following singular supplies were terminated to 1 meg resistor 
   supply       node1            node2
  vvddh                   0:vddh             defined in subckt 0                     0:0                defined in subckt 0               
  vvssh                   0:vssh             defined in subckt 0                     0:0                defined in subckt 0               
      
 **info** set option symb=1 internally to help for convergence.
 *****************************************************************
 ******  option summary
 ******
 runlvl  = 5         bypass  = 2         
  Opening plot unit= 79
 file=test.pa0                                                                 

1****** HSPICE -- F-2011.09 32-BIT (Sep  5 2011) winnt ******                   
 ******  
 bandgap

  ******  operating point information tnom=  25.000 temp=  27.000 *****
 ***** operating point status is all       simulation time is     0.     
      node    =voltage        node    =voltage        node    =voltage

 +  0:clk1    =  -1.8000    0:clk1d   =  -1.8000    0:clk2    =   1.8000 
 +  0:clk2d   =   1.8000    0:clkin   =  -1.8000    0:out     =  -5.9751u
 +  0:out1    =  -1.8000    0:out2    =  -1.8000    0:out3    =  -1.8000 
 +  0:out4    = -51.1201m   0:out5    = -51.1201m   0:out6    = -51.1201m
 +  0:shout   =-900.0303m   0:vddh    =   3.3000    0:vddl    =   1.8000 
 +  0:vin     =   0.        0:viref   =  -1.6000    0:vref    =   1.6000 
 +  0:vssh    =  -3.3000    0:vssl    =  -1.8000    1:net01   =   1.8000 
 +  1:net02   =  -1.8000    1:net03   =   1.8000    1:net04   =  -1.8000 
 +  1:net07   =   1.8000    1:net08   =  -1.8000    1:net09   =   1.8000 
 +  1:net10   =  -1.8000    1:net11   =   1.8000    1:net12   =  -1.8000 
 +  3:iin     =  -1.4882    3:pot1    =  -1.0000    3:pot2    =-600.0000m
 +  3:pot3    =-200.0000m   3:pot4    = 200.0000m   3:pot5    = 600.0000m
 +  3:pot6    =   1.0000    4:ina     =  -5.9767u   4:inb     =  -5.9767u
 +  4:inc     =  -5.9767u   4:ind     =  -5.9767u   4:ine     =  -5.9767u
 +  4:inf     =  -5.9767u   4:vn      =  -5.9763u   5:net01   =  -1.7229 
 +  6:net01   =  -1.8000    7:net01   =  -1.8000    8:net01   =  -1.7229 
 + 10:net01   =   1.8000   10:net02   =  -1.8000   10:net03   =   1.8000 
 + 10:net04   =  -1.8000   10:net05   =   1.8000   10:net06   =  -1.8000 
 + 12:net01   =  -1.8000   12:net02   =   1.8000   12:net03   =  -1.8000 
 + 12:net04   =   1.8000   12:net05   =  -1.8000   12:net06   =   1.8000 
 + 15:in_inv  =   1.8000   16:in_inv  =   1.8000   17:in_inv  =  -1.8000 
 + 18:in_inv  =  -1.8000   19:iclk    =   1.8000   19:inetd4  =   1.8000 
 + 19:netd4   =  -1.7985   19:netd6   =  -1.8000   19:netd7   =  -1.8000 
 + 19:nets1   =   1.3364   19:nets2   =   1.8000   19:nets3   = 899.3400m
 + 19:nets5   =  -1.8000   19:nets7   =  -1.8000   20:net33   =   1.7908 
 + 20:net34   =   1.3293   21:net33   =   1.3234   21:net34   =   1.8000 
 + 22:net33   =   1.3223   22:net34   =   1.8000   23:net33   =   1.3212 
 + 23:net34   =   1.8000   24:net33   =   1.3200   24:net34   =   1.8000 
 + 25:net33   =   1.3187   25:net34   =   1.8000   26:iclk    =   1.8000 
 + 26:inetd4  =   1.8000   26:netd4   =  -1.7985   26:netd6   =  -1.8000 
 + 26:netd7   =  -1.8000   26:nets1   =   1.3364   26:nets2   =   1.8000 
 + 26:nets3   = 899.3398m  26:nets5   =  -1.8000   26:nets7   =  -1.8000 
 + 27:iclk    =   1.8000   27:inetd4  =   1.8000   27:netd4   =  -1.7985 
 + 27:netd6   =  -1.8000   27:netd7   =  -1.8000   27:nets1   =   1.3364 
 + 27:nets2   =   1.8000   27:nets3   = 899.3401m  27:nets5   =  -1.8000 
 + 27:nets7   =  -1.8000   28:iclk    =   1.8000   28:inetd4  =   1.8000 
 + 28:netd4   =  -1.7985   28:netd6   =  -1.8000   28:netd7   =  -1.8000 
 + 28:nets1   =   1.3364   28:nets2   =   1.8000   28:nets3   = 899.3399m
 + 28:nets5   =  -1.8000   28:nets7   =  -1.8000   29:iclk    =-281.9240m
 + 29:inetd4  =   1.7856   29:netd4   =  -1.3866   29:netd6   =  -1.8000 
 + 29:netd7   =  -1.8000   29:nets1   =   1.3364   29:nets2   =   1.8000 
 + 29:nets3   = 899.3399m  29:nets5   =  -1.5982   29:nets7   =  -1.8000 
 + 30:iclk    =-281.9240m  30:inetd4  =   1.7856   30:netd4   =  -1.3866 
 + 30:netd6   =  -1.8000   30:netd7   =  -1.8000   30:nets1   =   1.3364 
 + 30:nets2   =   1.8000   30:nets3   = 899.3401m  30:nets5   =  -1.5982 
 + 30:nets7   =  -1.8000   31:iclk    =-281.9240m  31:inetd4  =   1.7856 
 + 31:netd4   =  -1.3866   31:netd6   =  -1.8000   31:netd7   =  -1.8000 
 + 31:nets1   =   1.3364   31:nets2   =   1.8000   31:nets3   = 899.3400m
 + 31:nets5   =  -1.5982   31:nets7   =  -1.8000   32:3       =   1.1424 
 + 32:4       =-916.1067m  32:5       =-916.4264m  32:7       = 933.4246m
 + 57:net045  =   1.8000   57:net048  =  -1.8000   57:net049  =   1.8000 
 + 57:net40   =  -1.8000   57:net42   =  -1.8000   57:outn1   =   1.8000 
 + 57:outp1   =   1.8000   58:net27   =  -1.3500   59:net045  =   1.8000 
 + 59:net048  =  -1.8000   59:net049  =   1.8000   59:net40   =  -1.8000 
 + 59:net42   =  -1.8000   59:outn1   =   1.8000   59:outp1   =   1.8000 
 + 60:net27   =  -1.1083   61:net045  =   1.8000   61:net048  =  -1.8000 
 + 61:net049  =   1.8000   61:net40   =  -1.8000   61:net42   =  -1.8000 
 + 61:outn1   =   1.8000   61:outp1   =   1.8000   62:net27   =-776.2644m
 + 63:net045  = -67.9282m  63:net048  = -66.6561m  63:net049  = 126.3752m
 + 63:net40   =  -1.8000   63:net42   =  -1.8000   63:outn1   =   1.8000 
 + 63:outp1   =   1.8000   64:net27   =-438.4916m  65:net045  = -67.9282m
 + 65:net048  = -66.6561m  65:net049  = 126.3752m  65:net40   =  -1.8000 
 + 65:net42   =  -1.8000   65:outn1   =   1.8000   65:outp1   =   1.8000 
 + 66:net27   = -96.0437m  67:net045  = -67.9282m  67:net048  = -66.6561m
 + 67:net049  = 126.3752m  67:net40   =  -1.8000   67:net42   =  -1.8000 
 + 67:outn1   =   1.8000   67:outp1   =   1.8000   68:net27   = 250.3112m
 + 83:net01   =   1.3044   84:net01   =  -1.8000   87:net01   =   1.3044 
 + 88:net01   =  -1.8000   91:net01   =   1.3044   92:net01   =  -1.8000 
 + 95:net01   =-448.7627m  96:net01   =  -1.4823   99:net01   =-448.7627m
 +100:net01   =  -1.4823  103:net01   =-448.7627m 104:net01   =  -1.4823 


 **** voltage sources

 subckt                                                                   
 element    0:vvref      0:vviref     0:vclk       0:vvddh      0:vvssh   
  volts        1.6000      -1.6000      -1.8000       3.3000      -3.3000 
  current     -2.0005u      2.0000u      0.          -3.3000u      3.3000u
  power        3.2008u      3.2000u      0.          10.8900u     10.8900u

 subckt                                         
 element    0:vvddl      0:vvssl      0:vvin    
  volts        1.8000      -1.8000       0.     
  current    -19.6152m     19.6152m   -131.1745p
  power       35.3074m     35.3074m      0.     

     total voltage source power dissipation=   70.6429m       watts



 **** current sources

 subckt     xsubadc      xsubdac.xi
 element    3:iiin      32:ib      
  volts        3.2882       2.7334 
  current      2.0000u     45.0000u
  power       -6.5763u   -123.0041u


     total current source power dissipation=-129.5804u       watts

 **** resistors

 subckt     xsubadc      xsubadc      xsubadc      xsubadc      xsubadc   
 element    3:r1         3:r2         3:r3         3:r4         3:r5      
  r value    300.0000k    200.0000k    200.0000k    200.0000k    200.0000k
  v drop     600.0000m    400.0000m    400.0000m    400.0000m    400.0000m
  current      2.0000u      2.0000u      2.0000u      2.0000u      2.0000u
  power        1.2000u    800.0000n    800.0000n    800.0000n    800.0000n

 subckt     xsubadc      xsubadc      xsubdac      xsubdac      xsubdac   
 element    3:r6         3:r7         4:r1         4:r2         4:r3      
  r value    200.0000k    300.0000k      2.0000k      2.0000k      2.0000k
  v drop     400.0000m    600.0000m    400.0176p    400.0176p    400.0176p
  current      2.0000u      2.0000u    200.0088f    200.0088f    200.0088f
  power      800.0000n      1.2000u    8.001e-23    8.001e-23    8.001e-23

 subckt     xsubdac      xsubdac      xsubdac      xsubdac   
 element    4:r4         4:r5         4:r6         4:rno     
  r value      2.0000k      2.0000k      2.0000k      1.0000k
  v drop     400.0176p    400.0176p    400.0176p     -1.2001n
  current    200.0088f    200.0088f    200.0088f     -1.2001p
  power      8.001e-23    8.001e-23    8.001e-23    1.440e-21



 **** mosfets


 subckt     xclk.xa1     xclk.xa1     xclk.xa1     xclk.xa1     xclk.xa2  
 element    5:mpm2       5:mpm1       5:mnm1       5:mnm2       6:mpm2    
 model      0:p18        0:p18        0:n18        0:n18        0:p18     
 region         Linear       Linear       Cutoff       Cutoff       Cutoff
  id         -60.3805p    -60.3805p    112.9021p    109.6106p   -314.9950p
  ibs        7.829e-27    7.829e-27   -2.413e-26     -2.2557a    4.131e-26
  ibd        1.601e-24    1.601e-24     -2.2557a     -4.0274p     16.7420p
  vgs         -3.6000      -3.6000       8.1802n    -77.1204m    -23.4460n
  vds        -23.4460n    -23.4460n     77.1205m      3.5229      -3.6000 
  vbs          0.           0.           0.         -77.1205m      0.     
  vth       -459.1981m   -459.1981m    417.9057m    382.2829m   -397.3947m
  vdsat       -2.0438      -2.0438      42.4407m     42.7222m    -45.3381m
  vod         -3.1408      -3.1408    -417.9057m   -459.4033m    397.3947m
  beta         1.2382m      1.2382m      4.8359m      4.8439m      2.7178m
  gam eff    608.2173m    608.2173m    766.6028m    770.6096m    608.2173m
  gm           2.8410p      2.8410p      3.2781n      3.1942n      8.3865n
  gds          2.6006m      2.6006m    307.7140p    112.9327p    193.1844p
  gmb          4.9420p      4.9420p    954.4751p    722.2820p      2.6369n
  cdtot       12.7297f     12.7297f      2.4643f      1.6082f      3.6596f
  cgtot        7.7482f      7.7482f      2.3699f      2.3699f      4.6727f
  cstot       10.8987f     10.8987f      2.5312f      2.4643f      5.7275f
  cbtot        9.2736f      9.2736f      4.3254f      3.4025f      7.1366f
  cgs          3.8670f      3.8670f    760.0529a    760.0085a      1.7285f
  cgd          3.9103f      3.9103f    759.9619a    759.9616a      1.7311f



 subckt     xclk.xa2     xclk.xa2     xclk.xa2     xclk.xa3     xclk.xa3  
 element    6:mpm1       6:mnm1       6:mnm2       7:mpm2       7:mpm1    
 model      0:p18        0:n18        0:n18        0:p18        0:p18     
 region         Cutoff       Linear       Linear       Cutoff       Cutoff
  id        -314.9960p    677.8750p    677.8749p   -314.9960p   -315.0011p
  ibs        4.131e-26   -1.448e-25   -1.543e-23    4.131e-26    4.131e-26
  ibd         16.7420p   -1.514e-23   -3.043e-23     16.7420p     16.7423p
  vgs       -139.4204n      3.6000       3.6000    -139.4204n   -744.4057n
  vds         -3.6000     171.8426n    171.8426n     -3.6000      -3.6000 
  vbs          0.           0.        -171.8426n      0.           0.     
  vth       -397.3947m    419.0454m    419.0455m   -397.3947m   -397.3947m
  vdsat      -45.3381m      1.2614       1.2614     -45.3381m    -45.3381m
  vod        397.3946m      3.1810       3.1810     397.3946m    397.3940m
  beta         2.7178m      1.6943m      1.6943m      2.7178m      2.7178m
  gam eff    608.2173m    766.6028m    766.6028m    608.2173m    608.2173m
  gm           8.3865n      0.           0.           8.3865n      8.3867n
  gds        193.1850p      4.0209m      4.0209m    193.1850p    193.1881p
  gmb          2.6369n     52.9160p     52.9159p      2.6369n      2.6370n
  cdtot        3.6596f      6.5130f      6.5130f      3.6596f      3.6596f
  cgtot        4.6727f      4.3343f      4.3343f      4.6727f      4.6727f
  cstot        5.7275f      5.5557f      5.5557f      5.7275f      5.7275f
  cbtot        7.1366f      4.4270f      4.4270f      7.1366f      7.1366f
  cgs          1.7285f      2.0478f      2.0478f      1.7285f      1.7285f
  cgd          1.7311f      2.0610f      2.0610f      1.7311f      1.7311f



 subckt     xclk.xa3     xclk.xa3     xclk.xa4     xclk.xa4     xclk.xa4  
 element    7:mnm1       7:mnm2       8:mpm2       8:mpm1       8:mnm1    
 model      0:n18        0:n18        0:p18        0:p18        0:n18     
 region         Linear       Linear       Linear       Linear       Cutoff
  id         677.8816p    677.8816p    -60.3804p    -60.3804p    112.9021p
  ibs       -1.448e-25   -1.543e-23    7.829e-27    7.829e-27   -2.413e-26
  ibd       -1.514e-23   -3.043e-23    1.601e-24    1.601e-24     -2.2557a
  vgs          3.6000       3.6000      -3.6000      -3.6000       8.1802n
  vds        171.8443n    171.8443n    -23.4460n    -23.4460n     77.1207m
  vbs          0.        -171.8443n      0.           0.           0.     
  vth        419.0454m    419.0455m   -459.1981m   -459.1981m    417.9057m
  vdsat        1.2614       1.2614      -2.0438      -2.0438      42.4407m
  vod          3.1810       3.1810      -3.1408      -3.1408    -417.9057m
  beta         1.6943m      1.6943m      1.2382m      1.2382m      4.8359m
  gam eff    766.6028m    766.6028m    608.2173m    608.2173m    766.6028m
  gm           0.           0.           2.8410p      2.8410p      3.2781n
  gds          4.0209m      4.0209m      2.6006m      2.6006m    307.7128p
  gmb         52.9165p     52.9165p      4.9420p      4.9420p    954.4756p
  cdtot        6.5130f      6.5130f     12.7297f     12.7297f      2.4643f
  cgtot        4.3343f      4.3343f      7.7482f      7.7482f      2.3699f
  cstot        5.5557f      5.5557f     10.8987f     10.8987f      2.5312f
  cbtot        4.4270f      4.4270f      9.2736f      9.2736f      4.3254f
  cgs          2.0478f      2.0478f      3.8670f      3.8670f    760.0529a
  cgd          2.0610f      2.0610f      3.9103f      3.9103f    759.9619a



 subckt     xclk.xa4     xclk.xi1     xclk.xi1     xclk.xi3     xclk.xi3  
 element    8:mnm2       9:mpm2       9:mnm1      11:mpm2      11:mnm1    
 model      0:n18        0:p18        0:n18        0:p18        0:n18     
 region         Cutoff       Cutoff       Linear       Linear       Cutoff
  id         109.6106p   -314.9951p    338.9370p     -1.9171n      1.8382n
  ibs         -2.2557a    4.131e-26   -7.238e-26    2.486e-25   -3.933e-25
  ibd         -4.0274p     16.7420p   -7.572e-24    5.083e-23    -71.7267p
  vgs        -77.1203m    -23.4460n      3.6000      -3.6000     343.6886n
  vds          3.5229      -3.6000      85.9212n   -744.4130n      3.6000 
  vbs        -77.1207m      0.           0.           0.           0.     
  vth        382.2829m   -397.3947m    419.0454m   -459.1981m    365.8435m
  vdsat       42.7222m    -45.3381m      1.2614      -2.0438      42.4474m
  vod       -459.4032m    397.3947m      3.1810      -3.1408    -365.8432m
  beta         4.8439m      2.7178m      1.6943m      1.2382m      4.8301m
  gam eff    770.6096m    608.2173m    766.6028m    608.2173m    766.6028m
  gm           3.1942n      8.3865n      0.          90.2021p     52.7110n
  gds        112.9327p    193.1844p      4.0209m      2.6006m      1.8360n
  gmb        722.2819p      2.6369n     26.4579p    156.9080p     12.1825n
  cdtot        1.6082f      3.6596f      6.5130f     12.7297f      1.6082f
  cgtot        2.3699f      4.6727f      4.3343f      7.7482f      2.3701f
  cstot        2.4643f      5.7275f      5.5557f     10.8987f      2.5314f
  cbtot        3.4025f      7.1366f      4.4270f      9.2736f      3.4693f
  cgs        760.0085a      1.7285f      2.0478f      3.8670f    760.2248a
  cgd        759.9616a      1.7311f      2.0610f      3.9103f    759.9589a



 subckt     xclk.xi5     xclk.xi5     xclk.xi6     xclk.xi6     xsh.xs0   
 element   13:mpm2      13:mnm1      14:mpm2      14:mnm1      19:mn01    
 model      0:p18        0:n18        0:p18        0:n18        0:n18     
 region         Linear       Cutoff       Cutoff       Linear       Cutoff
  id          -1.9171n      1.8381n   -315.0011p    338.9434p      2.6729p
  ibs        2.486e-25   -3.933e-25    4.131e-26   -7.238e-26    -20.7396a
  ibd        5.083e-23    -71.7260p     16.7423p   -7.572e-24    -20.7396a
  vgs         -3.6000       0.        -744.4057n      3.6000     463.5522m
  vds       -744.4057n      3.6000      -3.6000      85.9228n    463.5522m
  vbs          0.           0.           0.           0.          -3.1364 
  vth       -459.1981m    365.8435m   -397.3947m    419.0454m    889.8912m
  vdsat       -2.0438      42.4474m    -45.3381m      1.2614      46.1464m
  vod         -3.1408    -365.8435m    397.3940m      3.1810    -426.3391m
  beta         1.2382m      4.8301m      2.7178m      1.6943m      1.4245m
  gam eff    608.2173m    766.6028m    608.2173m    766.6028m    879.3706m
  gm          90.2012p     52.7105n      8.3867n      0.          91.9299p
  gds          2.6006m      1.8360n    193.1881p      4.0209m    104.9404f
  gmb        156.9064p     12.1824n      2.6370n     26.4584p     11.0881p
  cdtot       12.7297f      1.6082f      3.6596f      6.5130f     15.8691f
  cgtot        7.7482f      2.3701f      4.6727f      4.3343f    134.4869f
  cstot       10.8987f      2.5314f      5.7275f      5.5557f     16.2771f
  cbtot        9.2736f      3.4693f      7.1366f      4.4270f    135.6470f
  cgs          3.8670f    760.2248a      1.7285f      2.0478f      7.7513f
  cgd          3.9103f    759.9589a      1.7311f      2.0610f      7.7440f



 subckt     xsh.xs0      xsh.xs0      xsh.xs0      xsh.xs0      xsh.xs0   
 element   19:mp02      19:mn03      19:mp04      19:mn05      19:mn06    
 model      0:p18        0:n18        0:p18        0:n18        0:n18     
 region         Cutoff       Cutoff       Cutoff       Cutoff       Cutoff
  id         -62.7791a      7.1972p     -6.1578p      6.8011p     45.1594a
  ibs       -8.564e-23    -20.7396a    4.956e-27   -6.827e-23      0.     
  ibd          0.         -23.1280a    253.2774f     -1.1188a   -7.479e-24
  vgs         -1.0105u    437.1078m   -744.4074n     -2.5479n     85.9228n
  vds       -266.0479n    900.6600m     -3.5985       1.4905m      9.6922n
  vbs       -266.0479n     -2.6993       0.         -88.4708n      0.     
  vth       -370.0149m    836.7157m   -370.0150m    336.5713m    336.5712m
  vdsat      -40.0468m     45.7606m    -40.0468m     40.2807m     40.2807m
  vod        370.0139m   -399.6080m    370.0142m   -336.5713m   -336.5712m
  beta       298.7068u      1.4218m    298.7068u      1.3826m      1.3826m
  gam eff    574.4626m    868.1671m    574.4626m    773.0195m    773.0195m
  gm           1.9804f    245.7565p    194.2567p    206.9779p      1.3743f
  gds        235.9683p    261.4025f     75.9137f      4.4672n      4.6594n
  gmb        670.4948a     32.1279p     65.2880p     67.8206p    450.4517a
  cdtot       28.9074f     15.8691f     18.3663f     24.8243f     24.8702f
  cgtot      241.3300f    140.4576f    241.2855f    249.4682f    249.4717f
  cstot       28.8212f     16.7310f     28.7569f     24.8184f     24.8260f
  cbtot      263.7476f    142.0648f    253.5204f    267.7040f    267.7176f
  cgs          8.2063f      7.7547f      8.2974f      7.7997f      7.7888f
  cgd          8.9726f      7.7440f      8.8216f      7.8289f      7.8444f



 subckt     xsh.xs0      xsh.xs0      xsh.xs0      xsh.xs0      xsh.xs0   
 element   19:mn07      19:mp08      19:mn09      19:mn10      19:mn11    
 model      0:n18        0:p18        0:n18        0:n18        0:n18     
 region         Linear       Cutoff       Cutoff       Linear       Cutoff
  id           5.3985p   -2.359e-24   -124.8045p      5.3986p   -1.189e-26
  ibs       -2.636e-24    1.371e-27    -69.9395f   -7.376e-27    -20.7396a
  ibd       -5.250e-24      8.6450a   -6.844e-23   -2.621e-24    -20.7396a
  vgs          3.6000     900.6592m     -1.8000       3.6000      -1.8000 
  vds          3.4064n     -2.6993      -1.8000       3.4064n   -900.0303m
  vbs         -3.4064n      0.          -1.8000       0.          -1.8000 
  vth        336.5713m   -370.0150m    336.5713m    336.5712m    554.6221m
  vdsat        3.1158     -40.0460m     40.2807m      3.1158      43.2467m
  vod          3.2634       1.2707      -2.1366       3.2634      -2.3546 
  beta       494.9657u    298.7068u      1.3826m    494.9658u      1.4154m
  gam eff    773.0195m    574.4626m    773.0195m    773.0195m    812.4958m
  gm           0.         7.490e-23      3.7984n      0.         3.883e-25
  gds          1.5938m    2.773e-26      4.3728p      1.5938m    4.330e-28
  gmb        896.7906f    3.175e-23      1.2318n    896.8087f    9.956e-26
  cdtot      946.0318f     19.3852f     24.7878f    946.0318f     20.0311f
  cgtot      899.3489f    507.3085f    249.4376f    899.3489f    249.3719f
  cstot      899.3881f     28.5870f     17.9659f    899.3881f     17.9659f
  cbtot      296.7206f    519.9779f    261.0198f    296.7206f    256.3846f
  cgs        447.4509f      8.8379f      7.7440f    447.4509f      7.7440f
  cgd        445.0434f      8.8216f      7.8435f    445.0434f      7.7522f



 subckt     xsh.xs0      xsh.xs0      xsubdac.xs   xsubdac.xs   xsubdac.xs
 element   19:mn12      19:mn13      26:mn01      26:mp02      26:mn03    
 model      0:n18        0:n18        0:n18        0:p18        0:n18     
 region         Linear       Cutoff       Cutoff       Cutoff       Cutoff
  id         140.2102p      6.8011p      2.6729p     51.4835a      7.1973p
  ibs       -1.916e-25   -6.827e-23    -20.7396a    7.023e-23    -20.7396a
  ibd       -6.807e-23     -1.1188a    -20.7396a      0.         -23.1281a
  vgs          3.6000     -81.6579n    463.5522m   -526.2261n    437.1080m
  vds         88.4708n      1.4905m    463.5522m    218.1813n    900.6602m
  vbs          0.         -88.4708n     -3.1364     218.1813n     -2.6993 
  vth        336.5712m    336.5713m    889.8912m   -370.0150m    836.7157m
  vdsat        3.1158      40.2807m     46.1464m    -40.0468m     45.7606m
  vod          3.2634    -336.5714m   -426.3391m    370.0145m   -399.6078m
  beta       494.9658u      1.3826m      1.4245m    298.7068u      1.4218m
  gam eff    773.0195m    773.0195m    879.3706m    574.4626m    868.1671m
  gm           0.         206.9774p     91.9299p      1.6241f    245.7584p
  gds          1.5938m      4.4672n    104.9404f    235.9659p    261.4046f
  gmb         23.2915p     67.8205p     11.0881p    549.8557a     32.1281p
  cdtot      946.0318f     24.8243f     15.8691f     28.8212f     15.8691f
  cgtot      899.3489f    249.4682f    134.4869f    241.3300f    140.4576f
  cstot      899.3881f     24.8184f     16.2771f     28.9074f     16.7310f
  cbtot      296.7206f    267.7040f    135.6470f    263.7478f    142.0648f
  cgs        447.4509f      7.7997f      7.7513f      8.9726f      7.7547f
  cgd        445.0434f      7.8289f      7.7440f      8.2062f      7.7440f



 subckt     xsubdac.xs   xsubdac.xs   xsubdac.xs   xsubdac.xs   xsubdac.xs
 element   26:mp04      26:mn05      26:mn06      26:mn07      26:mp08    
 model      0:p18        0:n18        0:n18        0:n18        0:p18     
 region         Cutoff       Cutoff       Cutoff       Linear       Cutoff
  id          -6.1578p      6.8011p     65.3463a      5.3986p   -2.359e-24
  ibs        4.956e-27   -7.296e-23      0.        -2.636e-24    1.371e-27
  ibd        253.2774f     -1.1188a   -1.082e-23   -5.250e-24      8.6450a
  vgs       -744.4074n     -8.6164n     85.9228n      3.6000     900.6594m
  vds         -3.5985       1.4905m     14.0248n      3.4065n     -2.6993 
  vbs          0.         -94.5392n      0.          -3.4065n      0.     
  vth       -370.0150m    336.5713m    336.5712m    336.5713m   -370.0150m
  vdsat      -40.0468m     40.2807m     40.2807m      3.1158     -40.0460m
  vod        370.0142m   -336.5713m   -336.5712m      3.2634       1.2707 
  beta       298.7068u      1.3826m      1.3826m    494.9657u    298.7068u
  gam eff    574.4626m    773.0195m    773.0195m    773.0195m    574.4626m
  gm         194.2567p    206.9755p      1.9887f      0.         7.490e-23
  gds         75.9137f      4.4672n      4.6594n      1.5938m    2.773e-26
  gmb         65.2880p     67.8198p    651.8107a    896.8106f    3.175e-23
  cdtot       18.3663f     24.8243f     24.8702f    946.0318f     19.3852f
  cgtot      241.2855f    249.4682f    249.4717f    899.3489f    507.3087f
  cstot       28.7569f     24.8184f     24.8260f    899.3881f     28.5870f
  cbtot      253.5204f    267.7040f    267.7176f    296.7206f    519.9780f
  cgs          8.2974f      7.7997f      7.7888f    447.4509f      8.8379f
  cgd          8.8216f      7.8289f      7.8444f    445.0434f      8.8216f



 subckt     xsubdac.xs   xsubdac.xs   xsubdac.xs   xsubdac.xs   xsubdac.xs
 element   26:mn09      26:mn10      26:mn11      26:mn12      26:mn13    
 model      0:n18        0:n18        0:n18        0:n18        0:n18     
 region         Cutoff       Linear       Cutoff       Linear       Cutoff
  id        -132.8222p      5.3987p      0.         149.8276p      6.8010p
  ibs         -2.8916p   -7.376e-27    -20.7396a   -2.047e-25   -7.296e-23
  ibd       -7.313e-23   -2.621e-24    -20.7396a   -7.274e-23     -1.1188a
  vgs         -3.4000       3.6000      -3.4000       3.6000     -87.7262n
  vds         -3.4000       3.4065n     -1.6000      94.5392n      1.4905m
  vbs         -3.4000       0.          -3.4000       0.         -94.5392n
  vth        336.5713m    336.5712m    711.4805m    336.5712m    336.5713m
  vdsat       40.2807m      3.1158      44.7609m      3.1158      40.2807m
  vod         -3.7366       3.2634      -4.1115       3.2634    -336.5714m
  beta         1.3826m    494.9658u      1.4198m    494.9658u      1.3826m
  gam eff    773.0195m    773.0195m    842.7237m    773.0195m    773.0195m
  gm           4.0424n      0.           0.           0.         206.9750p
  gds          6.1494p      1.5938m      0.           1.5938m      4.4672n
  gmb          1.3108n    896.8309f      0.          24.8891p     67.8197p
  cdtot       24.7878f    946.0318f     17.9659f    946.0318f     24.8243f
  cgtot      249.4376f    899.3489f    249.3751f    899.3489f    249.4682f
  cstot       16.0360f    899.3881f     16.0360f    899.3881f     24.8184f
  cbtot      259.0899f    296.7206f    252.3921f    296.7206f    267.7040f
  cgs          7.7440f    447.4509f      7.7440f    447.4509f      7.7997f
  cgd          7.8434f    445.0434f      7.7527f    445.0434f      7.8289f



 subckt     xsubdac.xs   xsubdac.xs   xsubdac.xs   xsubdac.xs   xsubdac.xs
 element   27:mn01      27:mp02      27:mn03      27:mp04      27:mn05    
 model      0:n18        0:p18        0:n18        0:p18        0:n18     
 region         Cutoff       Cutoff       Cutoff       Cutoff       Cutoff
  id           2.6729p     93.1921a      7.1972p     -6.1578p      6.8009p
  ibs        -20.7396a    1.271e-22    -20.7396a    4.956e-27   -7.296e-23
  ibd        -20.7396a      0.         -23.1280a    253.2774f     -1.1188a
  vgs        463.5522m   -349.4690n    437.1078m   -744.4074n     -8.6161n
  vds        463.5522m    394.9384n    900.6599m     -3.5985       1.4904m
  vbs         -3.1364     394.9384n     -2.6993       0.         -94.5389n
  vth        889.8912m   -370.0150m    836.7158m   -370.0150m    336.5713m
  vdsat       46.1464m    -40.0468m     45.7606m    -40.0468m     40.2807m
  vod       -426.3391m    370.0146m   -399.6080m    370.0142m   -336.5713m
  beta         1.4245m    298.7068u      1.4218m    298.7068u      1.3826m
  gam eff    879.3706m    574.4626m    868.1671m    574.4626m    773.0195m
  gm          91.9299p      2.9398f    245.7563p    194.2567p    206.9715p
  gds        104.9404f    235.9648p    261.4023f     75.9137f      4.4672n
  gmb         11.0881p    995.3124a     32.1278p     65.2880p     67.8185p
  cdtot       15.8691f     28.8212f     15.8691f     18.3663f     24.8243f
  cgtot      134.4869f    241.3300f    140.4576f    241.2855f    249.4682f
  cstot       16.2771f     28.9074f     16.7310f     28.7569f     24.8184f
  cbtot      135.6470f    263.7478f    142.0648f    253.5204f    267.7040f
  cgs          7.7513f      8.9726f      7.7547f      8.2974f      7.7997f
  cgd          7.7440f      8.2062f      7.7440f      8.8216f      7.8289f



 subckt     xsubdac.xs   xsubdac.xs   xsubdac.xs   xsubdac.xs   xsubdac.xs
 element   27:mn06      27:mn07      27:mp08      27:mn09      27:mn10    
 model      0:n18        0:n18        0:p18        0:n18        0:n18     
 region         Cutoff       Linear       Cutoff       Cutoff       Linear
  id        -142.0226a      5.3986p   -2.359e-24   -132.8222p      5.3988p
  ibs          0.        -2.636e-24    1.371e-27     -2.8916p   -7.376e-27
  ibd        2.352e-23   -5.250e-24      8.6450a   -7.313e-23   -2.621e-24
  vgs         85.9228n      3.6000     900.6592m     -3.4000       3.6000 
  vds        -30.4812n      3.4065n     -2.6993      -3.4000       3.4066n
  vbs          0.          -3.4066n      0.          -3.4000       0.     
  vth        336.5712m    336.5713m   -370.0150m    336.5713m    336.5712m
  vdsat       40.2807m      3.1158     -40.0460m     40.2807m      3.1158 
  vod       -336.5712m      3.2634       1.2707      -3.7366       3.2634 
  beta         1.3826m    494.9657u    298.7068u      1.3826m    494.9658u
  gam eff    773.0195m    773.0195m    574.4626m    773.0195m    773.0195m
  gm           4.3221f      0.         7.490e-23      4.0424n      0.     
  gds          4.6594n      1.5938m    2.773e-26      6.1494p      1.5938m
  gmb          1.4166f    896.8096f    3.175e-23      1.3108n    896.8366f
  cdtot       24.8260f    946.0318f     19.3852f     24.7878f    946.0318f
  cgtot      249.4717f    899.3489f    507.3085f    249.4376f    899.3489f
  cstot       24.8702f    899.3881f     28.5870f     16.0360f    899.3881f
  cbtot      267.7176f    296.7206f    519.9779f    259.0899f    296.7206f
  cgs          7.8444f    447.4509f      8.8379f      7.7440f    447.4509f
  cgd          7.7888f    445.0434f      8.8216f      7.8434f    445.0434f



 subckt     xsubdac.xs   xsubdac.xs   xsubdac.xs   xsubdac.xs   xsubdac.xs
 element   27:mn11      27:mn12      27:mn13      28:mn01      28:mp02    
 model      0:n18        0:n18        0:n18        0:n18        0:p18     
 region         Cutoff       Linear       Cutoff       Cutoff       Cutoff
  id           0.         149.8271p      6.8009p      2.6729p     77.5758a
  ibs        -20.7396a   -2.047e-25   -7.296e-23    -20.7396a    1.058e-22
  ibd        -20.7396a   -7.274e-23     -1.1188a    -20.7396a      0.     
  vgs         -3.4000       3.6000     -87.7259n    463.5522m   -415.6497n
  vds         -1.6000      94.5389n      1.4904m    463.5522m    328.7578n
  vbs         -3.4000       0.         -94.5389n     -3.1364     328.7578n
  vth        711.4805m    336.5712m    336.5713m    889.8912m   -370.0150m
  vdsat       44.7609m      3.1158      40.2807m     46.1464m    -40.0468m
  vod         -4.1115       3.2634    -336.5714m   -426.3391m    370.0146m
  beta         1.4198m    494.9658u      1.3826m      1.4245m    298.7068u
  gam eff    842.7237m    773.0195m    773.0195m    879.3706m    574.4626m
  gm           0.           0.         206.9711p     91.9299p      2.4472f
  gds          0.           1.5938m      4.4672n    104.9404f    235.9652p
  gmb          0.          24.8891p     67.8184p     11.0881p    828.5268a
  cdtot       17.9659f    946.0318f     24.8243f     15.8691f     28.8212f
  cgtot      249.3751f    899.3489f    249.4682f    134.4869f    241.3300f
  cstot       16.0360f    899.3881f     24.8184f     16.2771f     28.9074f
  cbtot      252.3921f    296.7206f    267.7040f    135.6470f    263.7478f
  cgs          7.7440f    447.4509f      7.7997f      7.7513f      8.9726f
  cgd          7.7527f    445.0434f      7.8289f      7.7440f      8.2062f



 subckt     xsubdac.xs   xsubdac.xs   xsubdac.xs   xsubdac.xs   xsubdac.xs
 element   28:mn03      28:mp04      28:mn05      28:mn06      28:mn07    
 model      0:n18        0:p18        0:n18        0:n18        0:n18     
 region         Cutoff       Cutoff       Cutoff       Cutoff       Linear
  id           7.1973p     -6.1578p      6.8011p   -108.5678a      5.3985p
  ibs        -20.7396a    4.956e-27   -7.296e-23      0.        -2.636e-24
  ibd        -23.1281a    253.2774f     -1.1188a    1.798e-23   -5.250e-24
  vgs        437.1079m   -744.4076n     -8.6161n     85.9228n      3.6000 
  vds        900.6601m     -3.5985       1.4905m    -23.3010n      3.4064n
  vbs         -2.6993       0.         -94.5390n      0.          -3.4065n
  vth        836.7157m   -370.0150m    336.5713m    336.5712m    336.5713m
  vdsat       45.7606m    -40.0468m     40.2807m     40.2807m      3.1158 
  vod       -399.6078m    370.0142m   -336.5713m   -336.5712m      3.2634 
  beta         1.4218m    298.7068u      1.3826m      1.3826m    494.9657u
  gam eff    868.1671m    574.4626m    773.0195m    773.0195m    773.0195m
  gm         245.7580p    194.2567p    206.9764p      3.3040f      0.     
  gds        261.4042f     75.9137f      4.4672n      4.6594n      1.5938m
  gmb         32.1281p     65.2880p     67.8201p      1.0829f    896.7905f
  cdtot       15.8691f     18.3663f     24.8243f     24.8260f    946.0318f
  cgtot      140.4576f    241.2855f    249.4682f    249.4717f    899.3489f
  cstot       16.7310f     28.7569f     24.8184f     24.8702f    899.3881f
  cbtot      142.0648f    253.5204f    267.7040f    267.7176f    296.7206f
  cgs          7.7547f      8.2974f      7.7997f      7.8444f    447.4509f
  cgd          7.7440f      8.8216f      7.8289f      7.7888f    445.0434f



 subckt     xsubdac.xs   xsubdac.xs   xsubdac.xs   xsubdac.xs   xsubdac.xs
 element   28:mp08      28:mn09      28:mn10      28:mn11      28:mn12    
 model      0:p18        0:n18        0:n18        0:n18        0:n18     
 region         Cutoff       Cutoff       Linear       Cutoff       Linear
  id        -2.359e-24   -132.8222p      5.3986p      0.         149.8272p
  ibs        1.371e-27     -2.8916p   -7.376e-27    -20.7396a   -2.047e-25
  ibd          8.6450a   -7.313e-23   -2.621e-24    -20.7396a   -7.274e-23
  vgs        900.6594m     -3.4000       3.6000      -3.4000       3.6000 
  vds         -2.6993      -3.4000       3.4065n     -1.6000      94.5390n
  vbs          0.          -3.4000       0.          -3.4000       0.     
  vth       -370.0150m    336.5713m    336.5712m    711.4805m    336.5712m
  vdsat      -40.0460m     40.2807m      3.1158      44.7609m      3.1158 
  vod          1.2707      -3.7366       3.2634      -4.1115       3.2634 
  beta       298.7068u      1.3826m    494.9658u      1.4198m    494.9658u
  gam eff    574.4626m    773.0195m    773.0195m    842.7237m    773.0195m
  gm         7.490e-23      4.0424n      0.           0.           0.     
  gds        2.773e-26      6.1494p      1.5938m      0.           1.5938m
  gmb        3.175e-23      1.3108n    896.8107f      0.          24.8891p
  cdtot       19.3852f     24.7878f    946.0318f     17.9659f    946.0318f
  cgtot      507.3087f    249.4376f    899.3489f    249.3751f    899.3489f
  cstot       28.5870f     16.0360f    899.3881f     16.0360f    899.3881f
  cbtot      519.9780f    259.0899f    296.7206f    252.3921f    296.7206f
  cgs          8.8379f      7.7440f    447.4509f      7.7440f    447.4509f
  cgd          8.8216f      7.8434f    445.0434f      7.7527f    445.0434f



 subckt     xsubdac.xs   xsubdac.xs   xsubdac.xs   xsubdac.xs   xsubdac.xs
 element   28:mn13      29:mn01      29:mp02      29:mn03      29:mp04    
 model      0:n18        0:n18        0:p18        0:n18        0:p18     
 region         Cutoff       Cutoff       Linear       Cutoff     Saturati
  id           6.8011p      2.6729p    -13.4970a      7.1973p   -242.3185u
  ibs       -7.296e-23    -20.7396a      0.         -20.7396a    1.222e-19
  ibd         -1.1188a    -20.7396a      0.         -23.1281a      7.5891n
  vgs        -87.7261n    463.5522m     -2.0819     437.1079m     -2.0819 
  vds          1.4905m    463.5522m    -40.6342f    900.6601m     -3.1866 
  vbs        -94.5390n     -3.1364     -40.6342f     -2.6993       0.     
  vth        336.5713m    889.8912m   -370.0150m    836.7157m   -370.1325m
  vdsat       40.2807m     46.1464m     -1.4242      45.7606m     -1.4239 
  vod       -336.5714m   -426.3391m     -1.7119    -399.6078m     -1.7118 
  beta         1.3826m      1.4245m    202.7449u      1.4218m    202.7569u
  gam eff    773.0195m    879.3706m    574.4626m    868.1671m    574.4597m
  gm         206.9759p     91.9299p      4.3223a    245.7576p    221.0358u
  gds          4.4672n    104.9404f    333.9829u    261.4037f      1.0191u
  gmb         67.8200p     11.0881p      3.8361a     32.1280p     97.2863u
  cdtot       24.8243f     15.8691f    975.8726f     15.8691f     18.9142f
  cgtot      249.4682f    134.4869f    883.0223f    140.4576f    679.7152f
  cstot       24.8184f     16.2771f    908.6561f     16.7310f    780.9315f
  cbtot      267.7040f    135.6470f    286.0061f    142.0648f    213.6454f
  cgs          7.7997f      7.7513f    446.7183f      7.7547f    663.7741f
  cgd          7.8289f      7.7440f    455.1231f      7.7440f      8.8787f



 subckt     xsubdac.xs   xsubdac.xs   xsubdac.xs   xsubdac.xs   xsubdac.xs
 element   29:mn05      29:mn06      29:mn07      29:mp08      29:mn09    
 model      0:n18        0:n18        0:n18        0:p18        0:n18     
 region         Linear       Linear       Linear       Cutoff       Cutoff
  id         242.3261u   -103.3982a      5.3985p   -3.722e-24    -35.7248f
  ibs        -20.7284a      0.        -3.117e-24    1.371e-27   -612.5809a
  ibd        -20.7398a      0.        -5.730e-24      8.6450a    -20.7282a
  vgs          1.5471       1.7489       3.6000     886.2938m     -3.4000 
  vds        211.6657m    -69.5000f      3.4064n     -2.6993      -3.1982 
  vbs       -201.7692m      0.          -4.0295n      0.          -3.4000 
  vth        394.2237m    336.5712m    336.5713m   -370.0150m    394.1084m
  vdsat      993.1389m      1.2038       3.1158     -40.0460m     41.2000m
  vod          1.1529       1.4123       3.2634       1.2563      -3.7941 
  beta         1.1374m      1.0691m    494.9657u    298.7068u      1.3956m
  gam eff    783.1980m    773.0195m    773.0195m    574.4626m    783.1774m
  gm         155.7329u     35.9591a      0.         1.182e-22      1.1173p
  gds          1.0091m      1.4877m      1.5938m    4.376e-26      1.5690f
  gmb         69.4944u     27.5431a    896.7945f    4.993e-23    343.8197f
  cdtot      793.4057f    881.9128f    946.0318f     19.3852f     23.1384f
  cgtot      867.3980f    880.2335f    899.3489f    496.5977f    249.3697f
  cstot      831.3380f    928.3993f    899.3881f     28.5870f     16.0360f
  cbtot      256.7609f    297.4189f    296.7206f    509.2674f    257.5599f
  cgs        469.5476f    436.6747f    447.4509f      8.8376f      7.7440f
  cgd        382.3195f    432.8614f    445.0434f      8.8216f      7.7519f



 subckt     xsubdac.xs   xsubdac.xs   xsubdac.xs   xsubdac.xs   xsubdac.xs
 element   29:mn10      29:mn11      29:mn12      29:mn13      30:mn01    
 model      0:n18        0:n18        0:n18        0:n18        0:n18     
 region         Linear       Cutoff       Linear       Cutoff       Cutoff
  id           5.3984p      0.         242.3261u     31.8979f      2.6729p
  ibs       -7.376e-27    -20.7396a   -3.285e-19    -20.7282a    -20.7396a
  ibd       -3.102e-24    -20.7396a    -20.7282a    -20.7396a    -20.7396a
  vgs          1.5181      -3.4000       1.5181    -201.7692m    463.5522m
  vds          4.0295n     -1.6000     201.7692m    211.6657m    463.5522m
  vbs          0.          -3.4000       0.        -201.7692m     -3.1364 
  vth        336.5712m    711.4805m    336.7013m    394.1084m    889.8912m
  vdsat        1.0019      44.7609m      1.0015      41.2000m     46.1464m
  vod          1.1815      -4.1115       1.1814    -595.8775m   -426.3391m
  beta         1.1571m      1.4198m      1.1572m      1.3956m      1.4245m
  gam eff    773.0195m    842.7237m    773.0422m    783.1774m    879.3706m
  gm           2.8587p      0.         152.2483u    997.6418f     91.9299p
  gds          1.3461m      0.           1.0676m      2.2294f    104.9404f
  gmb          1.6117p      0.          76.9680u    307.0560f     11.0881p
  cdtot      923.5549f     17.9659f    818.1257f     21.9387f     15.8691f
  cgtot      875.6777f    249.3751f    868.4958f    249.3697f    134.4869f
  cstot      877.5249f     16.0360f    855.6779f     23.1384f     16.2771f
  cbtot      297.6318f    252.3921f    281.0601f    263.4626f    135.6470f
  cgs        429.6660f      7.7440f    471.1617f      7.7519f      7.7513f
  cgd        434.3755f      7.7527f    385.0783f      7.7440f      7.7440f



 subckt     xsubdac.xs   xsubdac.xs   xsubdac.xs   xsubdac.xs   xsubdac.xs
 element   30:mp02      30:mn03      30:mp04      30:mn05      30:mn06    
 model      0:p18        0:n18        0:p18        0:n18        0:n18     
 region         Linear       Cutoff     Saturati       Linear       Linear
  id         -85.5796a      7.1972p   -242.3185u    242.3261u     30.7221a
  ibs          0.         -20.7396a    1.222e-19    -20.7284a      0.     
  ibd          0.         -23.1280a      7.5891n    -20.7398a      0.     
  vgs         -2.0819     437.1077m     -2.0819       1.5471       1.7489 
  vds       -256.4615f    900.6599m     -3.1866     211.6657m     21.3163f
  vbs       -256.4615f     -2.6993       0.        -201.7692m      0.     
  vth       -370.0150m    836.7158m   -370.1325m    394.2237m    336.5712m
  vdsat       -1.4242      45.7606m     -1.4239     993.1389m      1.2038 
  vod         -1.7119    -399.6081m     -1.7118       1.1529       1.4123 
  beta       202.7449u      1.4218m    202.7569u      1.1374m      1.0691m
  gam eff    574.4626m    868.1671m    574.4597m    783.1980m    773.0195m
  gm          27.4064a    245.7556p    221.0358u    155.7329u     10.6843a
  gds        333.9829u    261.4016f      1.0191u      1.0091m      1.4877m
  gmb         24.3233a     32.1278p     97.2863u     69.4944u      8.1837a
  cdtot      975.8726f     15.8691f     18.9142f    793.4057f    928.3993f
  cgtot      883.0223f    140.4576f    679.7152f    867.3980f    880.2335f
  cstot      908.6561f     16.7310f    780.9315f    831.3380f    881.9128f
  cbtot      286.0061f    142.0648f    213.6454f    256.7609f    297.4189f
  cgs        446.7183f      7.7547f    663.7741f    469.5476f    432.8614f
  cgd        455.1231f      7.7440f      8.8787f    382.3195f    436.6747f



 subckt     xsubdac.xs   xsubdac.xs   xsubdac.xs   xsubdac.xs   xsubdac.xs
 element   30:mn07      30:mp08      30:mn09      30:mn10      30:mn11    
 model      0:n18        0:p18        0:n18        0:n18        0:n18     
 region         Linear       Cutoff       Cutoff       Linear       Cutoff
  id           5.3986p   -3.722e-24    -35.7248f      5.3985p      0.     
  ibs       -3.117e-24    1.371e-27   -612.5809a   -7.376e-27    -20.7396a
  ibd       -5.730e-24      8.6450a    -20.7282a   -3.102e-24    -20.7396a
  vgs          3.6000     886.2936m     -3.4000       1.5181      -3.4000 
  vds          3.4065n     -2.6993      -3.1982       4.0296n     -1.6000 
  vbs         -4.0296n      0.          -3.4000       0.          -3.4000 
  vth        336.5713m   -370.0150m    394.1084m    336.5712m    711.4805m
  vdsat        3.1158     -40.0460m     41.2000m      1.0019      44.7609m
  vod          3.2634       1.2563      -3.7941       1.1815      -4.1115 
  beta       494.9657u    298.7068u      1.3956m      1.1571m      1.4198m
  gam eff    773.0195m    574.4626m    783.1774m    773.0195m    842.7237m
  gm           0.         1.182e-22      1.1173p      2.8587p      0.     
  gds          1.5938m    4.376e-26      1.5690f      1.3461m      0.     
  gmb        896.8122f    4.994e-23    343.8197f      1.6117p      0.     
  cdtot      946.0318f     19.3852f     23.1384f    923.5549f     17.9659f
  cgtot      899.3489f    496.5975f    249.3697f    875.6777f    249.3751f
  cstot      899.3881f     28.5870f     16.0360f    877.5249f     16.0360f
  cbtot      296.7206f    509.2672f    257.5599f    297.6318f    252.3921f
  cgs        447.4509f      8.8376f      7.7440f    429.6660f      7.7440f
  cgd        445.0434f      8.8216f      7.7519f    434.3755f      7.7527f



 subckt     xsubdac.xs   xsubdac.xs   xsubdac.xs   xsubdac.xs   xsubdac.xs
 element   30:mn12      30:mn13      31:mn01      31:mp02      31:mn03    
 model      0:n18        0:n18        0:n18        0:p18        0:n18     
 region         Linear       Cutoff       Cutoff       Linear       Cutoff
  id         242.3261u     31.8979f      2.6729p     45.1629a      7.1973p
  ibs       -3.285e-19    -20.7282a    -20.7396a      0.         -20.7396a
  ibd        -20.7282a    -20.7396a    -20.7396a      0.         -23.1281a
  vgs          1.5181    -201.7692m    463.5522m     -2.0819     437.1078m
  vds        201.7692m    211.6657m    463.5522m    135.4472f    900.6600m
  vbs          0.        -201.7692m     -3.1364     135.4472f     -2.6993 
  vth        336.7013m    394.1084m    889.8912m   -370.0150m    836.7157m
  vdsat        1.0015      41.2000m     46.1464m     -1.4242      45.7606m
  vod          1.1814    -595.8775m   -426.3391m     -1.7119    -399.6079m
  beta         1.1572m      1.3956m      1.4245m    202.7449u      1.4218m
  gam eff    773.0422m    783.1774m    879.3706m    574.4626m    868.1671m
  gm         152.2483u    997.6418f     91.9299p     14.4632a    245.7571p
  gds          1.0676m      2.2294f    104.9404f    333.9829u    261.4032f
  gmb         76.9680u    307.0560f     11.0881p     12.8361a     32.1279p
  cdtot      818.1257f     21.9387f     15.8691f    908.6561f     15.8691f
  cgtot      868.4958f    249.3697f    134.4869f    883.0223f    140.4576f
  cstot      855.6779f     23.1384f     16.2771f    975.8726f     16.7310f
  cbtot      281.0601f    263.4626f    135.6470f    286.0061f    142.0648f
  cgs        471.1617f      7.7519f      7.7513f    455.1231f      7.7547f
  cgd        385.0783f      7.7440f      7.7440f    446.7183f      7.7440f



 subckt     xsubdac.xs   xsubdac.xs   xsubdac.xs   xsubdac.xs   xsubdac.xs
 element   31:mp04      31:mn05      31:mn06      31:mn07      31:mp08    
 model      0:p18        0:n18        0:n18        0:n18        0:p18     
 region       Saturati       Linear       Linear       Linear       Cutoff
  id        -242.3185u    242.3261u   -131.8079a      5.3986p   -3.722e-24
  ibs        1.222e-19    -20.7284a      0.        -3.117e-24    1.371e-27
  ibd          7.5891n    -20.7398a      0.        -5.730e-24      8.6450a
  vgs         -2.0819       1.5471       1.7489       3.6000     886.2937m
  vds         -3.1866     211.6657m    -88.3738f      3.4065n     -2.6993 
  vbs          0.        -201.7692m      0.          -4.0296n      0.     
  vth       -370.1325m    394.2237m    336.5712m    336.5713m   -370.0150m
  vdsat       -1.4239     993.1389m      1.2038       3.1158     -40.0460m
  vod         -1.7118       1.1529       1.4123       3.2634       1.2563 
  beta       202.7569u      1.1374m      1.0691m    494.9657u    298.7068u
  gam eff    574.4597m    783.1980m    773.0195m    773.0195m    574.4626m
  gm         221.0358u    155.7329u     45.8393a      0.         1.182e-22
  gds          1.0191u      1.0091m      1.4877m      1.5938m    4.376e-26
  gmb         97.2863u     69.4944u     35.1108a    896.8132f    4.993e-23
  cdtot       18.9142f    793.4057f    881.9128f    946.0318f     19.3852f
  cgtot      679.7152f    867.3980f    880.2335f    899.3489f    496.5976f
  cstot      780.9315f    831.3380f    928.3993f    899.3881f     28.5870f
  cbtot      213.6454f    256.7609f    297.4189f    296.7206f    509.2673f
  cgs        663.7741f    469.5476f    436.6747f    447.4509f      8.8376f
  cgd          8.8787f    382.3195f    432.8614f    445.0434f      8.8216f



 subckt     xsubdac.xs   xsubdac.xs   xsubdac.xs   xsubdac.xs   xsubdac.xs
 element   31:mn09      31:mn10      31:mn11      31:mn12      31:mn13    
 model      0:n18        0:n18        0:n18        0:n18        0:n18     
 region         Cutoff       Linear       Cutoff       Linear       Cutoff
  id         -35.7248f      5.3986p      0.         242.3261u     31.8979f
  ibs       -612.5809a   -7.376e-27    -20.7396a   -3.285e-19    -20.7282a
  ibd        -20.7282a   -3.102e-24    -20.7396a    -20.7282a    -20.7396a
  vgs         -3.4000       1.5181      -3.4000       1.5181    -201.7692m
  vds         -3.1982       4.0296n     -1.6000     201.7692m    211.6657m
  vbs         -3.4000       0.          -3.4000       0.        -201.7692m
  vth        394.1084m    336.5712m    711.4805m    336.7013m    394.1084m
  vdsat       41.2000m      1.0019      44.7609m      1.0015      41.2000m
  vod         -3.7941       1.1815      -4.1115       1.1814    -595.8775m
  beta         1.3956m      1.1571m      1.4198m      1.1572m      1.3956m
  gam eff    783.1774m    773.0195m    842.7237m    773.0422m    783.1774m
  gm           1.1173p      2.8588p      0.         152.2483u    997.6418f
  gds          1.5690f      1.3461m      0.           1.0676m      2.2294f
  gmb        343.8197f      1.6118p      0.          76.9680u    307.0560f
  cdtot       23.1384f    923.5549f     17.9659f    818.1257f     21.9387f
  cgtot      249.3697f    875.6777f    249.3751f    868.4958f    249.3697f
  cstot       16.0360f    877.5249f     16.0360f    855.6779f     23.1384f
  cbtot      257.5599f    297.6318f    252.3921f    281.0601f    263.4626f
  cgs          7.7440f    429.6660f      7.7440f    471.1617f      7.7519f
  cgd          7.7519f    434.3755f      7.7527f    385.0783f      7.7440f



 subckt     xsubdac.xi   xsubdac.xi   xsubdac.xi   xsubdac.xi   xsubdac.xi
 element   32:m1        32:m2        32:m3        32:m4        32:m5      
 model     32:p08       32:p08       32:n08       32:n08       32:p08     
 region       Saturati     Saturati     Saturati     Saturati     Saturati
  id         -22.2748u    -22.2745u     22.2748u     22.2745u    -44.5493u
  ibs          0.           0.           0.           0.           0.     
  ibd         28.0657f     28.0700f    -12.0509f    -12.0465f      8.9653f
  vgs         -1.1424      -1.1424     883.8933m    883.8933m   -866.5754m
[...]
  gm          39.0578n      8.3866n      8.3866n      0.           0.     
  gds          2.8141n    193.1866p    193.1875p      4.0209m      4.0209m
  gmb          3.1451n      2.6370n      2.6370n     52.9166p     52.9166p
  cdtot        1.6082f      3.6596f      3.6596f      6.5130f      6.5130f
  cgtot        1.9991f      4.6727f      4.6727f      4.3343f      4.3343f
  cstot        1.6542f      5.7275f      5.7275f      5.5557f      5.5557f
  cbtot        2.2212f      7.1366f      7.1366f      4.4270f      4.4270f
  cgs        760.2068a      1.7285f      1.7285f      2.0478f      2.0478f
  cgd        759.9494a      1.7311f      1.7311f      2.0610f      2.0610f



 subckt     xsubadc.xc   xsubadc.xc   xsubadc.xc   xsubadc.xc   xsubadc.xc
 element   85:mpm2      85:mnm1      86:mpm2      86:mnm1      87:mpm2    
 model      0:p18        0:n18        0:p18        0:n18        0:p18     
 region         Linear       Cutoff       Cutoff       Linear       Cutoff
  id          -1.9171n      1.8382n   -315.0011p    338.9434p   -545.7425a
  ibs        2.486e-25   -3.933e-25    4.131e-26   -7.238e-26      0.     
  ibd        5.083e-23    -71.7267p     16.7423p   -7.572e-24    3.176e-23
  vgs         -3.6000     343.6895n   -744.4130n      3.6000    -644.7769n
  vds       -744.4130n      3.6000      -3.6000      85.9228n   -462.8523n
  vbs          0.           0.           0.           0.           0.     
  vth       -459.1981m    365.8435m   -397.3947m    419.0454m   -459.1981m
  vdsat       -2.0438      42.4474m    -45.3381m      1.2614     -45.3538m
  vod         -3.1408    -365.8432m    397.3940m      3.1810     459.1975m
  beta         1.2382m      4.8301m      2.7178m      1.6943m      2.6534m
  gam eff    608.2173m    766.6028m    608.2173m    766.6028m    608.2173m
  gm          90.2021p     52.7110n      8.3867n      0.          14.5719f
  gds          2.6006m      1.8360n    193.1881p      4.0209m      1.1791n
  gmb        156.9080p     12.1825n      2.6370n     26.4584p      5.3515f
  cdtot       12.7297f      1.6082f      3.6596f      6.5130f      5.7270f
  cgtot        7.7482f      2.3701f      4.6727f      4.3343f      4.6721f
  cstot       10.8987f      2.5314f      5.7275f      5.5557f      5.7266f
  cbtot        9.2736f      3.4693f      7.1366f      4.4270f      9.2026f
  cgs          3.8670f    760.2248a      1.7285f      2.0478f      1.7273f
  cgd          3.9103f    759.9589a      1.7311f      2.0610f      1.7316f



 subckt     xsubadc.xc   xsubadc.xc   xsubadc.xc   xsubadc.xc   xsubadc.xc
 element   87:mpm1      87:mnm1      87:mnm2      88:mpm2      88:mpm1    
 model      0:p18        0:n18        0:n18        0:p18        0:p18     
 region         Linear       Cutoff       Cutoff       Cutoff       Cutoff
  id          -1.1920n      1.1513n      1.1879n   -314.9987p   -315.0003p
  ibs        1.545e-25   -2.465e-25     -2.3914a    4.131e-26    4.131e-26
  ibd        3.161e-23    -27.7564p     -2.3944a     16.7422p     16.7423p
  vgs         -3.6000     343.6895n    495.6480m   -462.8523n   -644.7775n
  vds       -462.8523n      3.1044     495.6482m     -3.6000      -3.6000 
  vbs          0.           0.          -3.1044       0.           0.     
  vth       -459.1981m    373.1684m    818.6270m   -397.3947m   -397.3947m
  vdsat       -2.0438      42.4454m     47.2603m    -45.3381m    -45.3381m
  vod         -3.1408    -373.1680m   -322.9790m    397.3943m    397.3941m
  beta         1.2382m      4.8321m      5.1435m      2.7178m      2.7178m
  gam eff    608.2173m    766.6028m    872.1527m    608.2173m    608.2173m
  gm          56.0848p     33.0802n     39.0578n      8.3866n      8.3866n
  gds          2.6006m      1.0166n      2.8141n    193.1866p    193.1875p
  gmb         97.5604p      7.9210n      3.1451n      2.6370n      2.6370n
  cdtot       12.7297f      1.6539f      1.6082f      3.6596f      3.6596f
  cgtot        7.7482f      2.3700f      1.9991f      4.6727f      4.6727f
  cstot       10.8987f      2.5314f      1.6542f      5.7275f      5.7275f
  cbtot        9.2736f      3.5151f      2.2212f      7.1366f      7.1366f
  cgs          3.8670f    760.1857a    760.2068a      1.7285f      1.7285f
  cgd          3.9103f    759.9594a    759.9494a      1.7311f      1.7311f



 subckt     xsubadc.xc   xsubadc.xc   xsubadc.xc   xsubadc.xc   xsubadc.xc
 element   88:mnm1      88:mnm2      89:mpm2      89:mnm1      90:mpm2    
 model      0:n18        0:n18        0:p18        0:n18        0:p18     
 region         Linear       Linear       Linear       Cutoff       Cutoff
  id         677.8834p    677.8834p     -1.9171n      1.8382n   -315.0011p
  ibs       -1.448e-25   -1.543e-23    2.486e-25   -3.933e-25    4.131e-26
  ibd       -1.514e-23   -3.043e-23    5.083e-23    -71.7267p     16.7423p
  vgs          3.6000       3.6000      -3.6000     343.6895n   -744.4130n
  vds        171.8448n    171.8447n   -744.4130n      3.6000      -3.6000 
  vbs          0.        -171.8448n      0.           0.           0.     
  vth        419.0454m    419.0455m   -459.1981m    365.8435m   -397.3947m
  vdsat        1.2614       1.2614      -2.0438      42.4474m    -45.3381m
  vod          3.1810       3.1810      -3.1408    -365.8432m    397.3940m
  beta         1.6943m      1.6943m      1.2382m      4.8301m      2.7178m
  gam eff    766.6028m    766.6028m    608.2173m    766.6028m    608.2173m
  gm           0.           0.          90.2021p     52.7110n      8.3867n
  gds          4.0209m      4.0209m      2.6006m      1.8360n    193.1881p
  gmb         52.9166p     52.9166p    156.9080p     12.1825n      2.6370n
  cdtot        6.5130f      6.5130f     12.7297f      1.6082f      3.6596f
  cgtot        4.3343f      4.3343f      7.7482f      2.3701f      4.6727f
  cstot        5.5557f      5.5557f     10.8987f      2.5314f      5.7275f
  cbtot        4.4270f      4.4270f      9.2736f      3.4693f      7.1366f
  cgs          2.0478f      2.0478f      3.8670f    760.2248a      1.7285f
  cgd          2.0610f      2.0610f      3.9103f    759.9589a      1.7311f



 subckt     xsubadc.xc   xsubadc.xc   xsubadc.xc   xsubadc.xc   xsubadc.xc
 element   90:mnm1      91:mpm2      91:mpm1      91:mnm1      91:mnm2    
 model      0:n18        0:p18        0:p18        0:n18        0:n18     
 region         Linear       Cutoff       Linear       Cutoff       Cutoff
  id         338.9435p   -545.7425a     -1.1920n      1.1513n      1.1879n
  ibs       -7.238e-26      0.         1.545e-25   -2.465e-25     -2.3914a
  ibd       -7.572e-24    3.176e-23    3.161e-23    -27.7564p     -2.3944a
  vgs          3.6000    -644.7769n     -3.6000     343.6895n    495.6480m
  vds         85.9228n   -462.8524n   -462.8524n      3.1044     495.6482m
  vbs          0.           0.           0.           0.          -3.1044 
  vth        419.0454m   -459.1981m   -459.1981m    373.1684m    818.6270m
  vdsat        1.2614     -45.3538m     -2.0438      42.4454m     47.2603m
  vod          3.1810     459.1975m     -3.1408    -373.1680m   -322.9790m
  beta         1.6943m      2.6534m      1.2382m      4.8321m      5.1435m
  gam eff    766.6028m    608.2173m    608.2173m    766.6028m    872.1527m
  gm           0.          14.5719f     56.0848p     33.0802n     39.0578n
  gds          4.0209m      1.1791n      2.6006m      1.0166n      2.8141n
  gmb         26.4585p      5.3515f     97.5604p      7.9210n      3.1451n
  cdtot        6.5130f      5.7270f     12.7297f      1.6539f      1.6082f
  cgtot        4.3343f      4.6721f      7.7482f      2.3700f      1.9991f
  cstot        5.5557f      5.7266f     10.8987f      2.5314f      1.6542f
  cbtot        4.4270f      9.2026f      9.2736f      3.5151f      2.2212f
  cgs          2.0478f      1.7273f      3.8670f    760.1857a    760.2068a
  cgd          2.0610f      1.7316f      3.9103f    759.9594a    759.9494a



 subckt     xsubadc.xc   xsubadc.xc   xsubadc.xc   xsubadc.xc   xsubadc.xc
 element   92:mpm2      92:mpm1      92:mnm1      92:mnm2      93:mpm2    
 model      0:p18        0:p18        0:n18        0:n18        0:p18     
 region         Cutoff       Cutoff       Linear       Linear     Saturati
  id        -314.9987p   -315.0003p    677.8834p    677.8833p     -1.2875m
  ibs        4.131e-26    4.131e-26   -1.448e-25   -1.543e-23    1.596e-19
  ibd         16.7422p     16.7423p   -1.514e-23   -3.043e-23     58.5669f
  vgs       -462.8524n   -644.7775n      3.6000       3.6000      -1.8667 
  vds         -3.6000      -3.6000     171.8447n    171.8447n     -1.8679 
  vbs          0.           0.           0.        -171.8447n      0.     
  vth       -397.3947m   -397.3947m    419.0454m    419.0455m   -427.9022m
  vdsat      -45.3381m    -45.3381m      1.2614       1.2614      -1.0145 
  vod        397.3943m    397.3941m      3.1810       3.1810      -1.4388 
  beta         2.7178m      2.7178m      1.6943m      1.6943m      1.9408m
  gam eff    608.2173m    608.2173m    766.6028m    766.6028m    608.1991m
  gm           8.3866n      8.3866n      0.           0.           1.1459m
  gds        193.1866p    193.1875p      4.0209m      4.0209m    111.2952u
  gmb          2.6370n      2.6370n     52.9166p     52.9166p    339.9890u
  cdtot        3.6596f      3.6596f      6.5130f      6.5130f      4.1397f
  cgtot        4.6727f      4.6727f      4.3343f      4.3343f      7.0823f
  cstot        5.7275f      5.7275f      5.5557f      5.5557f      9.4228f
  cbtot        7.1366f      7.1366f      4.4270f      4.4270f      7.3341f
  cgs          1.7285f      1.7285f      2.0478f      2.0478f      5.2628f
  cgd          1.7311f      1.7311f      2.0610f      2.0610f      1.6869f



 subckt     xsubadc.xc   xsubadc.xc   xsubadc.xc   xsubadc.xc   xsubadc.xc
 element   93:mnm1      94:mpm2      94:mnm1      95:mpm2      95:mpm1    
 model      0:n18        0:p18        0:n18        0:p18        0:p18     
 region       Saturati     Saturati     Saturati       Cutoff     Saturati
  id           1.2875m     -1.2871m      1.2870m    -99.4859p     -1.2642m
  ibs       -2.597e-19    1.595e-19   -2.596e-19    1.312e-26    1.568e-19
  ibd        -49.5819n     33.9794f    -57.3095n      1.5874f     33.6304a
  vgs          1.7333      -1.8679       1.7321    -644.7769n     -1.8667 
  vds          1.7321      -1.8511       1.7489      -1.6736      -1.6736 
  vbs          0.           0.           0.           0.           0.     
  vth        394.2525m   -428.1910m    394.0031m   -430.4660m   -431.2289m
  vdsat      531.2834m     -1.0151     530.9239m    -45.3460m     -1.0128 
  vod          1.3391      -1.4397       1.3381     430.4653m     -1.4354 
  beta         3.6969m      1.9400m      3.6990m      2.6836m      1.9390m
  gam eff    766.7667m    608.1992m    766.7666m    608.2173m    608.1995m
  gm           1.0578m      1.1437m      1.0584m      2.6536n      1.1177m
  gds         54.3741u    112.9043u     53.9684u     60.0572p    131.1757u
  gmb        245.2409u    339.8769u    244.9813u    904.5787p    337.9347u
  cdtot        1.8432f      4.1465f      1.8400f      4.2173f      4.2220f
  cgtot        3.8369f      7.0824f      3.8369f      4.6722f      7.0825f
  cstot        4.6901f      9.4234f      4.6897f      5.7267f      9.4289f
  cbtot        3.5730f      7.3406f      3.5700f      7.6942f      7.4146f
  cgs          2.7663f      5.2635f      2.7657f      1.7278f      5.2692f
  cgd        738.1101a      1.6869f    738.0848a      1.7311f      1.6873f



 subckt     xsubadc.xc   xsubadc.xc   xsubadc.xc   xsubadc.xc   xsubadc.xc
 element   95:mnm1      95:mnm2      96:mpm2      96:mpm1      96:mnm1    
 model      0:n18        0:n18        0:p18        0:p18        0:n18     
 region       Saturati       Linear     Saturati       Cutoff       Linear
  id           1.2642m      1.2642m     -1.0666m   -111.7317p      1.0666m
  ibs       -2.553e-19     -2.3914a    1.332e-19    1.473e-26   -2.173e-19
  ibd       -456.8672p     -2.4211a      1.1109p      8.3974f     -2.3935a
  vgs          1.7333       2.2488      -1.6736    -644.7775n      3.6000 
  vds          1.3512     575.1379m     -1.8667      -1.8667     317.7359m
  vbs          0.          -1.3512       0.           0.           0.     
  vth        399.8825m    643.3795m   -427.7917m   -427.1521m    415.0677m
  vdsat      530.6320m    668.2770m   -897.5816m    -45.3452m      1.2603 
  vod          1.3335       1.6054      -1.2458     427.1515m      3.1849 
  beta         3.6890m      2.9455m      2.0370m      2.6870m      1.6990m
  gam eff    766.7637m    822.1023m    608.2023m    608.2173m    766.7386m
  gm           1.0422m    540.3202u      1.1461m      2.9798n      0.     
  gds         71.6292u      1.0761m     88.9347u     66.9555p      2.8662m
  gmb        250.7064u     86.1841u    338.1033u      1.0079n     83.5640u
  cdtot        1.9271f      3.6689f      4.1394f      4.1370f      5.9412f
  cgtot        3.8378f      4.1343f      7.0756f      4.6723f      4.3251f
  cstot        4.6996f      4.2543f      9.4154f      5.7268f      5.4808f
  cbtot        3.6530f      2.7705f      7.3550f      7.6139f      4.1131f
  cgs          2.7753f      2.4664f      5.2344f      1.7279f      2.1428f
  cgd        739.4480a      1.3694f      1.6869f      1.7311f      1.9480f



 subckt     xsubadc.xc   xsubadc.xc   xsubadc.xc   xsubadc.xc   xsubadc.xc
 element   96:mnm2      97:mpm2      97:mnm1      98:mpm2      98:mnm1    
 model      0:n18        0:p18        0:n18        0:p18        0:n18     
 region       Saturati     Saturati     Saturati     Saturati     Saturati
  id           1.0666m     -1.2875m      1.2875m     -1.2871m      1.2870m
  ibs         -2.3913a    1.596e-19   -2.597e-19    1.595e-19   -2.596e-19
  ibd         -2.1997n     58.5669f    -49.5819n     33.9794f    -57.3095n
  vgs          1.6086      -1.8667       1.7333      -1.8679       1.7321 
  vds          1.4156      -1.8679       1.7321      -1.8511       1.7489 
  vbs       -317.7359m      0.           0.           0.           0.     
  vth        465.3785m   -427.9022m    394.2525m   -428.1910m    394.0031m
  vdsat      484.1110m     -1.0145     531.2834m     -1.0151     530.9239m
  vod          1.1433      -1.4388       1.3391      -1.4397       1.3381 
  beta         3.8351m      1.9408m      3.6969m      1.9400m      3.6990m
  gam eff    782.2908m    608.1991m    766.7667m    608.1992m    766.7666m
  gm           1.0635m      1.1459m      1.0578m      1.1437m      1.0584m
  gds         65.4775u    111.2952u     54.3741u    112.9043u     53.9684u
  gmb        200.7202u    339.9890u    245.2409u    339.8769u    244.9813u
  cdtot        1.8442f      4.1397f      1.8432f      4.1465f      1.8400f
  cgtot        3.8166f      7.0823f      3.8369f      7.0824f      3.8369f
  cstot        4.3875f      9.4228f      4.6901f      9.4234f      4.6897f
  cbtot        3.2841f      7.3341f      3.5730f      7.3406f      3.5700f
  cgs          2.7389f      5.2628f      2.7663f      5.2635f      2.7657f
  cgd        730.6679a      1.6869f    738.1101a      1.6869f    738.0848a



 subckt     xsubadc.xc   xsubadc.xc   xsubadc.xc   xsubadc.xc   xsubadc.xc
 element   99:mpm2      99:mpm1      99:mnm1      99:mnm2     100:mpm2    
 model      0:p18        0:p18        0:n18        0:n18        0:p18     
 region         Cutoff     Saturati     Saturati       Linear     Saturati
  id         -99.4859p     -1.2642m      1.2642m      1.2642m     -1.0666m
  ibs        1.312e-26    1.568e-19   -2.553e-19     -2.3914a    1.332e-19
  ibd          1.5874f     33.6304a   -456.8672p     -2.4211a      1.1109p
  vgs       -644.7769n     -1.8667       1.7333       2.2488      -1.6736 
  vds         -1.6736      -1.6736       1.3512     575.1379m     -1.8667 
  vbs          0.           0.           0.          -1.3512       0.     
  vth       -430.4660m   -431.2289m    399.8825m    643.3795m   -427.7917m
  vdsat      -45.3460m     -1.0128     530.6320m    668.2770m   -897.5816m
  vod        430.4653m     -1.4354       1.3335       1.6054      -1.2458 
  beta         2.6836m      1.9390m      3.6890m      2.9455m      2.0370m
  gam eff    608.2173m    608.1995m    766.7637m    822.1023m    608.2023m
  gm           2.6536n      1.1177m      1.0422m    540.3202u      1.1461m
  gds         60.0572p    131.1757u     71.6292u      1.0761m     88.9347u
  gmb        904.5787p    337.9347u    250.7064u     86.1841u    338.1033u
  cdtot        4.2173f      4.2220f      1.9271f      3.6689f      4.1394f
  cgtot        4.6722f      7.0825f      3.8378f      4.1343f      7.0756f
  cstot        5.7267f      9.4289f      4.6996f      4.2543f      9.4154f
  cbtot        7.6942f      7.4146f      3.6530f      2.7705f      7.3550f
  cgs          1.7278f      5.2692f      2.7753f      2.4664f      5.2344f
  cgd          1.7311f      1.6873f    739.4480a      1.3694f      1.6869f



 subckt     xsubadc.xc   xsubadc.xc   xsubadc.xc   xsubadc.xc   xsubadc.xc
 element  100:mpm1     100:mnm1     100:mnm2     101:mpm2     101:mnm1    
 model      0:p18        0:n18        0:n18        0:p18        0:n18     
 region         Cutoff       Linear     Saturati     Saturati     Saturati
  id        -111.7317p      1.0666m      1.0666m     -1.2875m      1.2875m
  ibs        1.473e-26   -2.173e-19     -2.3913a    1.596e-19   -2.597e-19
  ibd          8.3974f     -2.3935a     -2.1997n     58.5669f    -49.5819n
  vgs       -644.7775n      3.6000       1.6086      -1.8667       1.7333 
  vds         -1.8667     317.7359m      1.4156      -1.8679       1.7321 
  vbs          0.           0.        -317.7359m      0.           0.     
  vth       -427.1521m    415.0677m    465.3785m   -427.9022m    394.2525m
  vdsat      -45.3452m      1.2603     484.1110m     -1.0145     531.2834m
  vod        427.1515m      3.1849       1.1433      -1.4388       1.3391 
  beta         2.6870m      1.6990m      3.8351m      1.9408m      3.6969m
  gam eff    608.2173m    766.7386m    782.2908m    608.1991m    766.7667m
  gm           2.9798n      0.           1.0635m      1.1459m      1.0578m
  gds         66.9555p      2.8662m     65.4775u    111.2952u     54.3741u
  gmb          1.0079n     83.5640u    200.7202u    339.9890u    245.2409u
  cdtot        4.1370f      5.9412f      1.8442f      4.1397f      1.8432f
  cgtot        4.6723f      4.3251f      3.8166f      7.0823f      3.8369f
  cstot        5.7268f      5.4808f      4.3875f      9.4228f      4.6901f
  cbtot        7.6139f      4.1131f      3.2841f      7.3341f      3.5730f
  cgs          1.7279f      2.1428f      2.7389f      5.2628f      2.7663f
  cgd          1.7311f      1.9480f    730.6679a      1.6869f    738.1101a



 subckt     xsubadc.xc   xsubadc.xc   xsubadc.xc   xsubadc.xc   xsubadc.xc
 element  102:mpm2     102:mnm1     103:mpm2     103:mpm1     103:mnm1    
 model      0:p18        0:n18        0:p18        0:p18        0:n18     
 region       Saturati     Saturati       Cutoff     Saturati     Saturati
  id          -1.2871m      1.2870m    -99.4859p     -1.2642m      1.2642m
  ibs        1.595e-19   -2.596e-19    1.312e-26    1.568e-19   -2.553e-19
  ibd         33.9794f    -57.3095n      1.5874f     33.6304a   -456.8672p
  vgs         -1.8679       1.7321    -644.7769n     -1.8667       1.7333 
  vds         -1.8511       1.7489      -1.6736      -1.6736       1.3512 
  vbs          0.           0.           0.           0.           0.     
  vth       -428.1910m    394.0031m   -430.4660m   -431.2289m    399.8825m
  vdsat       -1.0151     530.9239m    -45.3460m     -1.0128     530.6320m
  vod         -1.4397       1.3381     430.4653m     -1.4354       1.3335 
  beta         1.9400m      3.6990m      2.6836m      1.9390m      3.6890m
  gam eff    608.1992m    766.7666m    608.2173m    608.1995m    766.7637m
  gm           1.1437m      1.0584m      2.6536n      1.1177m      1.0422m
  gds        112.9043u     53.9684u     60.0572p    131.1757u     71.6292u
