***** HSPICE -- F-2011.09 32-BIT (Sep  5 2011) winnt ******
 Input File: test.sp
 lic:
 lic: FLEXlm: v10.8
 lic: USER:   86184                HOSTNAME: PC2line
 lic: HOSTID: "e86a64c8f38a 00ff6e5bbc8f 485f9955e58d 4a5f9955e58d ca5f9955e58d"
 lic: Using FLEXlm license file:
 lic: D:\HSPICE\license1.dat
 lic: Checkout 1 hspice
 lic: License/Maintenance for hspice will expire on 31-dec-2030/2030.12
 lic: NODE LOCKED license on hostid "e86a64c8f38a 00ff6e5bbc8f 485f9955e58d 4a5f
 lic:
 init: begin read circuit files,  cpu clock=  8.61E-01
       option search   = D:\HSPICE\hspice\PARTS\behave\
       option search   = D:\HSPICE\hspice\PARTS\behave\
       option search   = D:\HSPICE\hspice\PARTS\AD\
       option search   = D:\HSPICE\hspice\PARTS\XILINX\
       option search   = D:\HSPICE\hspice\PARTS\TLINE\
       option search   = D:\HSPICE\hspice\PARTS\TI\
       option search   = D:\HSPICE\hspice\PARTS\SIGNET\
       option search   = D:\HSPICE\hspice\PARTS\PCI\
       option search   = D:\HSPICE\hspice\PARTS\LIN_TECH\
       option search   = D:\HSPICE\hspice\PARTS\FET\
       option search   = D:\HSPICE\hspice\PARTS\DIO\
       option search   = D:\HSPICE\hspice\PARTS\COMLINE\
       option search   = D:\HSPICE\hspice\PARTS\BURR_BRN\
       option search   = D:\HSPICE\hspice\PARTS\BJT\
       option search   = D:\HSPICE\hspice\PARTS\behave\
       option search   = D:\HSPICE\hspice\PARTS\AD\
       option post     =     2.00
       option runlvl
       option post
       option accura
       option probe
 init: end read circuit files,  cpu clock=  9.22E-01 memory=    439 kb
 init: begin check errors,  cpu clock=  9.22E-01
 init: end check errors,  cpu clock=  9.39E-01 memory=   2848 kb
 init: begin setup matrix, pivot=     0 cpu clock=  9.39E-01
       establish matrix -- done,  cpu clock=  9.49E-01 memory=   3182 kb
       re-order matrix -- done,  cpu clock=  9.57E-01 memory=   3332 kb
 init: end setup matrix,  cpu clock=  9.65E-01 memory=   3795 kb
 dcop: begin dcop,  cpu clock=  9.71E-01
 dcop: end dcop,  cpu clock=  1.01E+00 memory=   3795 kb  tot_iter=      61
 output: test.mt0
 sweep: tran tran0    begin, stop_t=  1.00E-04 #sweeps=**** cpu clock=  1.02E+00
 tran: time= 1.0000E-05 tot_iter=   25321 conv_iter=    8786 cpu clock= 6.06E+00
 tran: time= 2.0000E-05 tot_iter=   49756 conv_iter=   17214 cpu clock= 1.09E+01
 tran: time= 3.0000E-05 tot_iter=   74014 conv_iter=   25574 cpu clock= 1.56E+01
 tran: time= 4.0000E-05 tot_iter=   98678 conv_iter=   34079 cpu clock= 2.04E+01
 tran: time= 5.0000E-05 tot_iter=  122680 conv_iter=   42354 cpu clock= 2.50E+01
 tran: time= 6.0000E-05 tot_iter=  147552 conv_iter=   50941 cpu clock= 2.99E+01
 tran: time= 7.0000E-05 tot_iter=  172162 conv_iter=   59428 cpu clock= 3.47E+01
