***** HSPICE -- F-2011.09 32-BIT (Sep  5 2011) winnt ******
 Input File: test.sp
 lic:
 lic: FLEXlm: v10.8
 lic: USER:   86184                HOSTNAME: PC2line
 lic: HOSTID: "e86a64c8f38a 00ff6e5bbc8f 485f9955e58d 4a5f9955e58d ca5f9955e58d"
 lic: Using FLEXlm license file:
 lic: D:\HSPICE\license1.dat
 lic: Checkout 1 hspice
 lic: License/Maintenance for hspice will expire on 31-dec-2030/2030.12
 lic: NODE LOCKED license on hostid "e86a64c8f38a 00ff6e5bbc8f 485f9955e58d 4a5f
 lic:
 init: begin read circuit files,  cpu clock=  8.22E-01
       option search   = D:\HSPICE\hspice\PARTS\behave\
       option search   = D:\HSPICE\hspice\PARTS\behave\
       option search   = D:\HSPICE\hspice\PARTS\AD\
       option search   = D:\HSPICE\hspice\PARTS\XILINX\
       option search   = D:\HSPICE\hspice\PARTS\TLINE\
       option search   = D:\HSPICE\hspice\PARTS\TI\
       option search   = D:\HSPICE\hspice\PARTS\SIGNET\
       option search   = D:\HSPICE\hspice\PARTS\PCI\
       option search   = D:\HSPICE\hspice\PARTS\LIN_TECH\
       option search   = D:\HSPICE\hspice\PARTS\FET\
       option search   = D:\HSPICE\hspice\PARTS\DIO\
       option search   = D:\HSPICE\hspice\PARTS\COMLINE\
       option search   = D:\HSPICE\hspice\PARTS\BURR_BRN\
       option search   = D:\HSPICE\hspice\PARTS\BJT\
       option search   = D:\HSPICE\hspice\PARTS\behave\
       option search   = D:\HSPICE\hspice\PARTS\AD\
       option post     =     2.00
       option runlvl
       option post
       option accura
       option probe
 init: end read circuit files,  cpu clock=  8.90E-01 memory=    295 kb
 init: begin check errors,  cpu clock=  8.90E-01
 init: end check errors,  cpu clock=  9.05E-01 memory=   1225 kb
 init: begin setup matrix, pivot=     0 cpu clock=  9.05E-01
       establish matrix -- done,  cpu clock=  9.22E-01 memory=   1351 kb
       re-order matrix -- done,  cpu clock=  9.29E-01 memory=   1404 kb
 init: end setup matrix,  cpu clock=  9.42E-01 memory=   1583 kb
 dcop: begin dcop,  cpu clock=  9.55E-01
 dcop: end dcop,  cpu clock=  9.87E-01 memory=   1583 kb  tot_iter=      30
 output: test.mt0
 sweep: tran tran0    begin, stop_t=  2.00E-05 #sweeps=**** cpu clock=  1.00E+00
 tran: time= 2.0001E-06 tot_iter=    5887 conv_iter=    2103 cpu clock= 1.53E+00
 tran: time= 4.0001E-06 tot_iter=   11894 conv_iter=    4230 cpu clock= 2.08E+00
 tran: time= 6.0001E-06 tot_iter=   17776 conv_iter=    6333 cpu clock= 2.83E+00
 tran: time= 8.0001E-06 tot_iter=   23673 conv_iter=    8439 cpu clock= 3.93E+00
 tran: time= 1.0000E-05 tot_iter=   29666 conv_iter=   10580 cpu clock= 4.90E+00
 tran: time= 1.2000E-05 tot_iter=   35548 conv_iter=   12676 cpu clock= 5.45E+00
 tran: time= 1.4000E-05 tot_iter=   41505 conv_iter=   14795 cpu clock= 5.98E+00
 tran: time= 1.6000E-05 tot_iter=   47435 conv_iter=   16919 cpu clock= 6.53E+00
 tran: time= 1.8000E-05 tot_iter=   53402 conv_iter=   19052 cpu clock= 7.10E+00
 tran: time= 2.0000E-05 tot_iter=   59361 conv_iter=   21166 cpu clock= 7.64E+00
 sweep: tran tran0    end,  cpu clock=  7.65E+00 memory=   1587 kb
>info:         ***** hspice job concluded
 lic: Release hspice token(s)
