 ****** HSPICE -- F-2011.09 32-BIT (Sep  5 2011) winnt ******                   
  Copyright (C) 2011 Synopsys, Inc. All Rights Reserved.                        
  Unpublished-rights reserved under US copyright laws.
  This program is protected by law and is subject to the
  terms and conditions of the license agreement from Synopsys.
  Use of this program is your acceptance to be bound by the
  license agreement. HSPICE is the trademark of Synopsys, Inc.
  Input File: test.sp                                                           
  Command line options: test.sp -o
  lic:  
  lic: FLEXlm: v10.8 
  lic: USER:   86184                HOSTNAME: PC2line 
  lic: HOSTID: "e86a64c8f38a 00ff6e5bbc8f 485f9955e58d 4a5f9955e58d ca5f9955e58d
 "
  lic: Using FLEXlm license file: 
  lic: D:\HSPICE\license1.dat 
  lic: Checkout 1 hspice 
  lic: License/Maintenance for hspice will expire on 31-dec-2030/2030.12 
  lic: NODE LOCKED license on hostid "e86a64c8f38a 00ff6e5bbc8f 485f9955e58d 4a5
 f
  lic:   
 Init: read install configuration file: D:\HSPICE\hspice\meta.cfg

 **warning**  runlvl smaller than 5, reset to 5  when accurate turned on
  **warning** (models\ms018_v1p7.mdl:56) Model n18 device geometries will not be checked against the limits set by lmin, lmax, wmin and wmax. To enable this check, add a period(.) to the model name(i.e. enable model selector).

 **warning**  runlvl smaller than 5, reset to 5  when accurate turned on
1****** HSPICE -- F-2011.09 32-BIT (Sep  5 2011) winnt ******                   
 ******  
 bandgap

  ******  circuit name directory
 circuit number to circuit name directory
   number circuitname                     definition         multiplier
        0 main circuit
        1 xclk.                           clocka             1.00 
        2 xr1.                            bandgapb           1.00 
        3 xsh.                            lsh                1.00 
        4 xsubadc.                        subadc             1.00 
        5 xsubdac.                        subdac             1.00 
        6 xfo1.                           opamp              1.00 
        7 xfo2.                           opamp              1.00 
        8 xfo3.                           opamp              1.00 
        9 xfo4.                           opamp              1.00 
       10 xfo5.                           opamp              1.00 
       11 xfo6.                           opamp              1.00 
       12 xclk.xa1.                       nand               1.00 
       13 xclk.xa2.                       nand               1.00 
       14 xclk.xa3.                       nand               1.00 
       15 xclk.xa4.                       nand               1.00 
       16 xclk.xi1.                       inv                1.00 
       17 xclk.xi2.                       inv1               1.00 
       18 xclk.xi3.                       inv                1.00 
       19 xclk.xi4.                       inv1               1.00 
       20 xclk.xi5.                       inv                1.00 
       21 xclk.xi6.                       inv                1.00 
       22 xclk.xb1.                       buffer             1.00 
       23 xclk.xb2.                       buffer             1.00 
       24 xclk.xb3.                       buffer             1.00 
       25 xclk.xb4.                       buffer             1.00 
       26 xr1.xa.                         bandgapa           1.00 
       27 xr1.xs.                         opamp              1.00 
       28 xr1.xi.                         opamp              1.00 
       29 xsh.xs0.                        boostrap           1.00 
       30 xsubadc.xc1.                    comparator_preamp
                                                                 1.00 
       31 xsubadc.xc2.                    comparator_preamp
                                                                 1.00 
       32 xsubadc.xc3.                    comparator_preamp
                                                                 1.00 
       33 xsubadc.xc4.                    comparator_preamp
                                                                 1.00 
       34 xsubadc.xc5.                    comparator_preamp
                                                                 1.00 
       35 xsubadc.xc6.                    comparator_preamp
                                                                 1.00 
       36 xsubdac.xs1.                    boostrap           1.00 
       37 xsubdac.xs2.                    boostrap           1.00 
       38 xsubdac.xs3.                    boostrap           1.00 
       39 xsubdac.xs4.                    boostrap           1.00 
       40 xsubdac.xs5.                    boostrap           1.00 
       41 xsubdac.xs6.                    boostrap           1.00 
       42 xsubdac.xi.                     opamp              1.00 
       43 xclk.xi2.x1.                    inv2               1.00 
       44 xclk.xi2.x2.                    inv2               1.00 
       45 xclk.xi2.x3.                    inv2               1.00 
       46 xclk.xi2.x4.                    inv2               1.00 
       47 xclk.xi2.x5.                    inv2               1.00 
       48 xclk.xi2.x6.                    inv2               1.00 
       49 xclk.xi2.x7.                    inv2               1.00 
       50 xclk.xi4.x1.                    inv2               1.00 
       51 xclk.xi4.x2.                    inv2               1.00 
       52 xclk.xi4.x3.                    inv2               1.00 
       53 xclk.xi4.x4.                    inv2               1.00 
       54 xclk.xi4.x5.                    inv2               1.00 
       55 xclk.xi4.x6.                    inv2               1.00 
       56 xclk.xi4.x7.                    inv2               1.00 
       57 xclk.xb1.x1.                    inv                1.00 
       58 xclk.xb1.x2.                    inv                1.00 
       59 xclk.xb2.x1.                    inv                1.00 
       60 xclk.xb2.x2.                    inv                1.00 
       61 xclk.xb3.x1.                    inv                1.00 
       62 xclk.xb3.x2.                    inv                1.00 
       63 xclk.xb4.x1.                    inv                1.00 
       64 xclk.xb4.x2.                    inv                1.00 
       65 xr1.xa.xi0.                     ota_bandgap        1.00 
       66 xsh.xs0.xi0.                    inv                1.00 
       67 xsh.xs0.xi1.                    inv                1.00 
       68 xsubadc.xc1.xi43.               comparatormove     1.00 
       69 xsubadc.xc1.xi42.               pre_amp            1.00 
       70 xsubadc.xc2.xi43.               comparatormove     1.00 
       71 xsubadc.xc2.xi42.               pre_amp            1.00 
       72 xsubadc.xc3.xi43.               comparatormove     1.00 
       73 xsubadc.xc3.xi42.               pre_amp            1.00 
       74 xsubadc.xc4.xi43.               comparatormove     1.00 
       75 xsubadc.xc4.xi42.               pre_amp            1.00 
       76 xsubadc.xc5.xi43.               comparatormove     1.00 
       77 xsubadc.xc5.xi42.               pre_amp            1.00 
       78 xsubadc.xc6.xi43.               comparatormove     1.00 
       79 xsubadc.xc6.xi42.               pre_amp            1.00 
       80 xsubdac.xs1.xi0.                inv                1.00 
       81 xsubdac.xs1.xi1.                inv                1.00 
       82 xsubdac.xs2.xi0.                inv                1.00 
       83 xsubdac.xs2.xi1.                inv                1.00 
       84 xsubdac.xs3.xi0.                inv                1.00 
       85 xsubdac.xs3.xi1.                inv                1.00 
       86 xsubdac.xs4.xi0.                inv                1.00 
       87 xsubdac.xs4.xi1.                inv                1.00 
       88 xsubdac.xs5.xi0.                inv                1.00 
       89 xsubdac.xs5.xi1.                inv                1.00 
       90 xsubdac.xs6.xi0.                inv                1.00 
       91 xsubdac.xs6.xi1.                inv                1.00 
       92 xsubadc.xc1.xi43.xi2.           inv                1.00 
       93 xsubadc.xc1.xi43.xi3.           inv                1.00 
       94 xsubadc.xc1.xi43.xi0.           nand               1.00 
       95 xsubadc.xc1.xi43.xi1.           nand               1.00 
       96 xsubadc.xc2.xi43.xi2.           inv                1.00 
       97 xsubadc.xc2.xi43.xi3.           inv                1.00 
       98 xsubadc.xc2.xi43.xi0.           nand               1.00 
       99 xsubadc.xc2.xi43.xi1.           nand               1.00 
      100 xsubadc.xc3.xi43.xi2.           inv                1.00 
      101 xsubadc.xc3.xi43.xi3.           inv                1.00 
      102 xsubadc.xc3.xi43.xi0.           nand               1.00 
      103 xsubadc.xc3.xi43.xi1.           nand               1.00 
      104 xsubadc.xc4.xi43.xi2.           inv                1.00 
      105 xsubadc.xc4.xi43.xi3.           inv                1.00 
      106 xsubadc.xc4.xi43.xi0.           nand               1.00 
      107 xsubadc.xc4.xi43.xi1.           nand               1.00 
      108 xsubadc.xc5.xi43.xi2.           inv                1.00 
      109 xsubadc.xc5.xi43.xi3.           inv                1.00 
      110 xsubadc.xc5.xi43.xi0.           nand               1.00 
      111 xsubadc.xc5.xi43.xi1.           nand               1.00 
      112 xsubadc.xc6.xi43.xi2.           inv                1.00 
      113 xsubadc.xc6.xi43.xi3.           inv                1.00 
      114 xsubadc.xc6.xi43.xi0.           nand               1.00 
      115 xsubadc.xc6.xi43.xi1.           nand               1.00 
1****** HSPICE -- F-2011.09 32-BIT (Sep  5 2011) winnt ******                   
 ******  
 bandgap

  ******  bjt   model parameters tnom=  25.000 temp=  25.000 *****

 ************************************************************************
 *** bjt model parameters   model name:   0:pnp33a25 model type:pnp   ***
 ************************************************************************

     names  values   units     names  values   units     names  values   units
     -----  ------   -----     -----  ------   -----     -----  ------   -----

   1*** basic dc parameters ***
    level=   1.00                bf=   3.62                br=   3.65m        
      brs=   0.                bulk=  gnd                  is= 2.3e-18 amps   
      iss=   0.    amps          nf=   1.01                nr=   1.00         
       ns=   1.00               ibe=   0.    amps         ibc=   0.    amps   
     subs=   1.00             expli=   0.    amps   

   2*** low current beta degradation effect parameters ***
      isc= 5.5e-17 amps         ise= 4.8e-17 amps          nc=   1.50         
       ne=   1.50         

   3*** base width modulation parameters ***
      vaf= 553.93  volts        var=  25.00  volts  

   4*** high current beta degradation effect parameters ***
      ikf=   1.30m amps         nkf= 500.00m              ikr=   2.09m amps   

   5*** parasitic resistor parameters ***
      irb= 800.00u amps          rb=  70.40  ohms         rbm=   2.00  ohms   
       re=   1.92  ohms          rc=  17.11  ohms         rcc=   0.    ohms   
       vo=   0.    volts      gamma=   0.           

   6*** junction capacitor parameters ***
     cbcp=   0.    farad       cbep=   0.    farad       ccsp=   0.    farad  
      cjc=  16.62f farad        cje=  23.91f farad        cjs=   0.    farad  
       fc= 500.00m              mjc= 317.00m              mje= 401.00m        
      mjs= 500.00m              vjc= 494.00m volts        vje= 807.00m volts  
      vjs= 750.00m volts       xcjc=   1.00               qco=   0.    coul   

   7*** transit time parameters ***
      itf=   0.    amps         ptf=   0.    deg k         tf=   0.    secs   
       tr=   0.    secs         vtf=   0.                 xtf=   0.           

   8*** temperature compensation parameters ***
     tlev=   0.               tlevc=   1.00              tre1=   0.    /deg   
     tre2=   0.    /deg2       trb1=   0.    /deg        trc1=   0.    /deg   
     trb2=   0.    /deg2       trm1=   0.    /deg         xtb=   0.           
     trm2=   0.    /deg2        xti=   3.00               cte= 883.00u /deg   
      ctc=   2.00m /deg         cts=   0.    /deg        trc2=   0.    /deg2  
     tref=  25.00   deg c       bex=   2.42              bexv=   1.90         

   9*** noise parameters ***
       kf=   0.                  af=   1.00         
1****** HSPICE -- F-2011.09 32-BIT (Sep  5 2011) winnt ******                   
 ******  
 bandgap

  ******  mos   model parameters tnom=  25.000 temp=  25.000 *****
 ***************************************************************************
 ***        model parameters  model name:   0:n18      model type:nmos   ***
 ***************************************************************************

   *** general parameters ***
    deriv=   0.           

   ***  level 49  model parameters  ***

       hspver=    2006.03               level=         49         
      version=       3.24            paramchk=          0         
       apwarn=          1                lite=          0         
       vgslim=          0             binUnit=          2         
       capMod=          3               xpart=          1         
       mobMod=          1              nqsMod=          0         
       stiMod=          0                 elm=          5         
     sfvtflag=          0                 tox=  3.77e-009 meter   
           xj=   1.6e-007 meter       binflag=          0         
         lmin=   1.5e-007 meter          lmax=     1e-005 meter   
         wmin=   1.9e-007 meter          wmax=     0.0001 meter   
         lref=          0 meter          wref=          0 meter   
         lint=1.57571e-008 meter          wint=-1.44505e-009 meter   
        lmult=          1               wmult=          1         
           ll=2.63528e-016                 lln=     1.1206         
           lw=-2.26256e-016                 lwn=       0.92         
          lwl=-2.05767e-022                  wl=-2.36646e-016         
          wln=       1.06                  ww=-3.64097e-014         
          wwn=   0.876847                 wwl=    -4e-021         
          dwg= -5.96e-009 m/V             dwb=   4.5e-009 m/V^1/2 
           xl=     8e-009                  xw=   2.2e-008         
           a0=       0.83                 ags=       0.32 V^-1    
           b0=     6e-008 meter            b1=          0 meter   
         keta=     -0.003 V^-1           voff=     -0.103 V       
        ngate=          0 cm^-3           vbx=          0 V       
          vbm=         -3 V                xt=  1.55e-007 meter   
         vth0=       0.35 V               nch=3.8694e+017 cm^-3   
         nsub=     6e+016 cm^-3           nlx=7.5451e-008 meter   
       gamma1=          0 V^-1/2       gamma2=          0 V^-1/2  
           k1=   0.680104 V^1/2            k2= -0.0499778         
           k3=         10                 k3b=         -3 V^-1    
           w0=5.58201e-007 meter          dvt0=        1.3         
         dvt1=   0.577163                dvt2=  -0.171755 V^-1    
        dvt0w=          0 meter^-1      dvt1w=          0 meter^-1
        dvt2w=          0 V^-1           dsub=        0.4         
         eta0=      0.028                etab=     -0.027 V^-1    
           u0=      0.034 m^2/V/sec         ua= -1.03e-009 m/V     
           ub=2.36667e-018 (m/V)^2          uc=   1.2e-010 V^-1    
         vsat=      82500 m/sec            a1=          0 v^-1    
           a2=       0.99               delta=       0.01 V       
         rdsw=    55.5497 ohm-um         prwg=        0.4 V^-1    
         prwb=      -0.24 V^-1/2           wr=          1         
         pclm=        1.2             pdiblc1=      0.025         
      pdiblc2=     0.0038             pdiblcb=          0 V^-1    
       pscbe1=  3.45e+008 V/m          pscbe2=     1e-006 V/m     
        drout=       0.56                pvag=          0         
      nfactor=       1.25                cdsc=          0 f/m^2   
        cdscb=          0 f/V/m^2       cdscd=     0.0001 f/V/m^2 
          cit=          0 f/m^2        alpha0=1.7754e-008 m/V     
        beta0=    11.1684 V               dlc=   8.5e-009 meter   
          dwc=   4.5e-008 meter           clc=     1e-007 meter   
          cle=        0.6                cgso= 3.885e-010 f/m     
         cgdo= 3.885e-010 f/m            cgbo=8.24355e-010 f/m     
         cgsl=          0 f/m            cgdl=          0 f/m     
       ckappa=        0.6                  cf=          0 f/m     
         acde=       0.64 m/V            moin=         24 V^1/2   
         toxm=  3.87e-009 m            dtoxcv=          0 m       
          vfb (not used)                alpha1=     0.1764 1/V     
         ijth=        0.1 A              noff=     1.2025         
       voffcv=          0                 tcj=   0.000842 1/K     
        tcjsw=   0.000669 1/K          tcjswg=   0.000669 1/K     
          tpb=    0.00147 V/K           tpbsw=   0.000868 V/K     
       tpbswg=   0.000868 V/K             llc=2.63528e-016         
          lwc=-2.26256e-016                lwlc=-2.05767e-022         
          wlc=-2.36646e-016                 wwc=-3.64097e-014         
         wwlc=    -4e-021                tnom=     298.15 K       
          kt1=  -0.257287 V              kt1l=    -1e-009         
          kt2=      -0.04                 ute=      -1.55         
          ua1=  1.76e-009 m/V             ub1=  -2.4e-018 (m/V)^2 
          uc1=    -1e-010 m/V^2            at=      37000 m/s     
          prt=        -55         
          using Berkeley noise model       noiMod=          2         
         noia=8.2282e+019                noib=      13327         
         noic=-2.4937e-014                  em=1.7767e+007         
           ef=      0.818                  af=          1         
           kf=          0              gdsnoi=-1.23457e-029         
          using Berkeley diodes          using ACM 
          acm=        12                 hdif=    2e-007 meter    
         ldif=    7e-008 meter             js= 3.52e-007 amp/m^2  
          jsw=    3e-013 amp/m            xti=      3.25          
           nj=    1.0392                   cj= 0.0009196 f/m^2    
           mj=     0.346                   pb=       0.7 V        
         cjsw=7.5525e-011 f/m             mjsw=     0.538          
          php (not used)                  pbsw=         1 V        
       cjgate (not used)                 cjswg=3.971e-010 f/m      
        mjswg=     0.538                pbswg=         1 V        
        lketa=  -1.7e-009               lvoff=  -3.3e-009         
          lu0=2.30577e-011                 lua=7.73498e-019         
     lnfactor=   4.5e-008                lua1=     6e-018         
         luc1=   1.7e-017             lalpha1= 7.625e-009         
        wvth0=-2.97095e-008                 wk1=-2.48968e-008         
          wu0=-3.10097e-009                wua1=  -1.1e-016         
        pvth0=  -2.5e-015                 pk1=   1.3e-015         
          pua=    -1e-024                 puc=   1.5e-024         
        pvsat=  -8.3e-010               ppclm=     3e-015         
     ppdiblc2=   2.7e-016                pua1=    -5e-025         
         puc1=    -3e-024                 pat=  -7.5e-010         
 ***************************************************************************
 ***        model parameters  model name:   0:p18      model type:pmos   ***
 ***************************************************************************

   *** general parameters ***
    deriv=   0.           

   ***  level 49  model parameters  ***

       hspver=    2006.03               level=         49         
      version=       3.24            paramchk=          0         
       apwarn=          1                lite=          0         
       vgslim=          0             binUnit=          2         
       capMod=          3               xpart=          1         
       mobMod=          1              nqsMod=          0         
       stiMod=          0                 elm=          5         
     sfvtflag=          0                 tox=  3.64e-009 meter   
           xj=   1.7e-007 meter       binflag=          0         
         lmin=   1.5e-007 meter          lmax=     1e-005 meter   
         wmin=   1.9e-007 meter          wmax=     0.0001 meter   
         lref=          0 meter          wref=          0 meter   
         lint=     1e-008 meter          wint=     8e-009 meter   
        lmult=          1               wmult=          1         
           ll=   3.4e-015                 lln=          1         
           lw= -3.36e-016                 lwn=          1         
          lwl=          0                  wl=3.59042e-015         
          wln=      1.045                  ww=  -1.9e-015         
          wwn=          1                 wwl=-1.1205e-021         
          dwg=-1.7362e-008 m/V             dwb=     2e-008 m/V^1/2 
           xl= -1.57e-008                  xw=   2.2e-008         
           a0=          1                 ags=        0.2 V^-1    
           b0=   6.3e-008 meter            b1=          0 meter   
         keta=       0.02 V^-1           voff=     -0.095 V       
        ngate= 3.168e+020 cm^-3           vbx=          0 V       
          vbm=         -3 V                xt=  1.55e-007 meter   
         vth0=     -0.382 V               nch=   5.5e+017 cm^-3   
         nsub=     6e+016 cm^-3           nlx=     9e-008 meter   
       gamma1=          0 V^-1/2       gamma2=          0 V^-1/2  
           k1=   0.587239 V^1/2            k2= 0.00709069         
           k3=        2.6                 k3b=     2.4862 V^-1    
           w0=          0 meter          dvt0=   0.719493         
         dvt1=   0.246744                dvt2=  0.0780897 V^-1    
        dvt0w=          0 meter^-1      dvt1w=     800000 meter^-1
        dvt2w=          0 V^-1           dsub=       0.56         
         eta0=       0.04                etab=     -0.025 V^-1    
           u0=   0.008661 m^2/V/sec         ua=  2.85e-010 m/V     
           ub=     1e-018 (m/V)^2          uc= -4.77e-011 V^-1    
         vsat=     100000 m/sec            a1=          0 v^-1    
           a2=       0.99               delta=       0.01 V       
         rdsw=        455 ohm-um         prwg=          0 V^-1    
         prwb=       -0.4 V^-1/2           wr=          1         
         pclm=        0.7             pdiblc1=          0         
      pdiblc2=      0.007             pdiblcb=          0 V^-1    
       pscbe1=     4e+008 V/m          pscbe2=     1e-007 V/m     
        drout=       0.56                pvag=          0         
      nfactor=        0.9                cdsc=          0 f/m^2   
        cdscb=          0 f/V/m^2       cdscd=          0 f/V/m^2 
          cit=          0 f/m^2        alpha0=     7e-008 m/V     
        beta0=    22.8424 V               dlc=  -1.5e-009 meter   
          dwc=     8e-009 meter           clc=     1e-007 meter   
          cle=        0.6                cgso=  4.41e-010 f/m     
         cgdo=  4.41e-010 f/m            cgbo=1.51786e-010 f/m     
         cgsl=          0 f/m            cgdl=          0 f/m     
       ckappa=        0.6                  cf=          0 f/m     
         acde=   0.850508 m/V            moin=    14.9534 V^1/2   
         toxm=  3.74e-009 m            dtoxcv=          0 m       
          vfb (not used)                alpha1=    7.04917 1/V     
         ijth=        0.1 A              noff=    1.43182         
       voffcv=          0                 tcj=   0.000876 1/K     
        tcjsw=   0.000745 1/K          tcjswg=   0.000745 1/K     
          tpb=    0.00153 V/K           tpbsw=    0.00117 V/K     
       tpbswg=    0.00117 V/K             llc=   3.4e-015         
          lwc= -3.36e-016                lwlc=          0         
          wlc=3.59042e-015                 wwc=  -1.9e-015         
         wwlc=-1.1205e-021                tnom=     298.15 K       
          kt1=  -0.257701 V              kt1l=    -8e-009         
          kt2= -0.0309799                 ute=   -1.27036         
          ua1=5.38663e-010 m/V             ub1=-2.071e-018 (m/V)^2 
          uc1=2.06097e-011 m/V^2            at=      10000 m/s     
          prt=         90         
          using Berkeley noise model       noiMod=          2         
         noia=3.3617e+018                noib=     195360         
         noic=5.2658e-012                  em=6.2548e+007         
           ef=     1.1307                  af=          1         
           kf=          0              gdsnoi=-1.23457e-029         
          using Berkeley diodes          using ACM 
          acm=        12                 hdif=    2e-007 meter    
         ldif=    7e-008 meter             js= 1.66e-007 amp/m^2  
          jsw=  1.2e-013 amp/m            xti=       4.5          
           nj=    1.0384                   cj= 0.0010165 f/m^2    
           mj=     0.415                   pb=     0.817 V        
         cjsw=9.3955e-011 f/m             mjsw=     0.489          
          php (not used)                  pbsw=         1 V        
       cjgate (not used)                 cjswg=4.8165e-010 f/m      
        mjswg=     0.489                pbswg=         1 V        
        lketa=  -8.5e-009               lvoff=  -1.7e-009         
          lk1=3.55321e-009                 lu0=    -2e-011         
          lua=   5.5e-018            lnfactor=     1e-007         
       lbeta0=  -7.5e-008                lkt2=    -3e-009         
        wvoff=    -2e-009               wvth0=1.26754e-008         
          wu0=1.38154e-010                 wuc=3.1668e-017         
         wua1=   1.1e-016               pketa=     5e-016         
        pvoff=    -1e-016               pvth0=  -2.5e-016         
          pua=    -2e-024                 puc=  -2.5e-024         
     pnfactor=    -5e-015                pkt2=-6.53317e-016         
         pua1= -2.37e-024                 pat=    -1e-009         
 ***************************************************************************
 ***        model parameters  model name:   0:n33      model type:nmos   ***
 ***************************************************************************

   *** general parameters ***
    deriv=   0.           

   ***  level 49  model parameters  ***

       hspver=    2006.03               level=         49         
      version=       3.24            paramchk=          0         
       apwarn=          1                lite=          0         
       vgslim=          0             binUnit=          2         
       capMod=          3               xpart=          1         
       mobMod=          1              nqsMod=          0         
       stiMod=          0                 elm=          5         
     sfvtflag=          0                 tox=  6.35e-009 meter   
           xj=   1.6e-007 meter       binflag=          0         
         lmin=     3e-007 meter          lmax=     1e-005 meter   
         wmin=   1.9e-007 meter          wmax=     0.0001 meter   
         lref=          0 meter          wref=          0 meter   
         lint=6.38913e-008 meter          wint= 3.585e-008 meter   
        lmult=          1               wmult=          1         
           ll=-2.33055e-015                 lln=    1.06258         
           lw=-2.46349e-015                 lwn=     1.0101         
          lwl=2.6243e-024                  wl=-1.89026e-015         
          wln=      0.981                  ww=  -1.3e-014         
          wwn=      0.906                 wwl=-1.30278e-020         
          dwg= -3.91e-009 m/V             dwb=   3.2e-009 m/V^1/2 
           xl=    -4e-009                  xw=   2.2e-008         
           a0=       1.02                 ags=       0.17 V^-1    
           b0=     1e-008 meter            b1=          0 meter   
         keta=          0 V^-1           voff=      -0.12 V       
        ngate=2.68121e+021 cm^-3           vbx=          0 V       
          vbm=         -3 V                xt=  1.55e-007 meter   
         vth0=      0.645 V               nch=4.3441e+017 cm^-3   
         nsub=     6e+016 cm^-3           nlx=2.02746e-007 meter   
       gamma1=          0 V^-1/2       gamma2=          0 V^-1/2  
           k1=     0.8451 V^1/2            k2=   0.044575         
           k3=      -3.85                 k3b=   0.566929 V^-1    
           w0=          0 meter          dvt0=    9.49914         
         dvt1=       0.63                dvt2=     -0.145 V^-1    
        dvt0w=          0 meter^-1      dvt1w=     0.1057 meter^-1
        dvt2w=          0 V^-1           dsub=        0.6         
         eta0=       0.04                etab=       -0.1 V^-1    
           u0=      0.035 m^2/V/sec         ua=-8.60011e-010 m/V     
           ub=   2.3e-018 (m/V)^2          uc=  1.31e-010 V^-1    
         vsat=      85000 m/sec            a1=          0 v^-1    
           a2=       0.99               delta=       0.01 V       
         rdsw=    242.084 ohm-um         prwg=      0.038 V^-1    
         prwb=     -0.085 V^-1/2           wr=          1         
         pclm=        0.8             pdiblc1=       0.09         
      pdiblc2=     0.0016             pdiblcb=          0 V^-1    
       pscbe1=   3.4e+008 V/m          pscbe2=   3.8e-006 V/m     
        drout=     0.5987                pvag=          0         
      nfactor=        1.1                cdsc=     0.0005 f/m^2   
        cdscb=          0 f/V/m^2       cdscd=          0 f/V/m^2 
          cit=     0.0001 f/m^2        alpha0=-4.476e-008 m/V     
        beta0=    18.8771 V               dlc=   6.5e-008 meter   
          dwc= 3.585e-008 meter           clc=     1e-007 meter   
          cle=        0.6                cgso= 4.053e-010 f/m     
         cgdo= 4.053e-010 f/m            cgbo=3.89905e-010 f/m     
         cgsl=          0 f/m            cgdl=          0 f/m     
       ckappa=        0.6                  cf=          0 f/m     
         acde=       0.45 m/V            moin=         24 V^1/2   
         toxm=  6.65e-009 m            dtoxcv=          0 m       
          vfb (not used)                alpha1=   0.899888 1/V     
         ijth=        0.1 A              noff=     2.3177         
       voffcv=          0                 tcj=   0.000897 1/K     
        tcjsw=   0.000695 1/K          tcjswg=   0.000695 1/K     
          tpb=    0.00166 V/K           tpbsw=    0.00162 V/K     
       tpbswg=    0.00162 V/K             llc=-2.33055e-015         
          lwc=-2.46349e-015                lwlc=2.6243e-024         
          wlc=-1.89026e-015                 wwc=  -1.3e-014         
         wwlc=-1.30278e-020                tnom=     298.15 K       
          kt1=     -0.325 V              kt1l=    -5e-009         
          kt2= -0.0368446                 ute=      -1.41         
          ua1=  2.06e-009 m/V             ub1=  -2.5e-018 (m/V)^2 
          uc1=  -1.1e-010 m/V^2            at=      22000 m/s     
          prt=         40         
          using Berkeley noise model       noiMod=          2         
         noia=  1.55e+020                noib=      71866         
         noic=1.4952e-013                  em=3.2163e+007         
           ef=      0.996                  af=          1         
           kf=          0              gdsnoi=-1.23457e-029         
          using Berkeley diodes          using ACM 
          acm=        12                 hdif= 2.05e-007 meter    
         ldif=  6.5e-008 meter             js= 3.65e-007 amp/m^2  
          jsw=    3e-013 amp/m            xti=       3.9          
           nj=      1.04                   cj=0.00080275 f/m^2    
           mj=     0.321                   pb=     0.708 V        
         cjsw=8.6925e-011 f/m             mjsw=     0.447          
          php (not used)                  pbsw=         1 V        
       cjgate (not used)                 cjswg=3.2395e-010 f/m      
        mjswg=     0.447                pbswg=         1 V        
          la0=  -1.2e-007               lketa=  -1.4e-008         
        lvth0=  4.01e-010                lnlx=-2.86086e-014         
          lk1=5.81826e-010               ldvt0=8.08397e-009         
        ldvt1=   5.5e-008                 lu0=     5e-010         
        lvsat=   -0.00173               lpclm=     5e-008         
      lpscbe1=         13            lnfactor=     4e-008         
       lbeta0=-5.7118e-007                luc1=   1.7e-017         
        wketa=    -2e-009               wvth0=  1.02e-008         
          wk1=-6.24562e-009                wua1= -1.26e-016         
         wub1=   1.1e-025               pketa=     1e-015         
        pvth0=  -2.7e-015                 pk1=1.99389e-015         
        peta0=     3e-016                 puc=     5e-025         
        pvsat=   1.2e-010               ppclm=     8e-015         
     ppdiblc2=    -7e-017            pnfactor=  -1.4e-014         
         pkt1=-2.37084e-015                pua1=    -1e-024         
 ***************************************************************************
 ***        model parameters  model name:   0:p33      model type:pmos   ***
 ***************************************************************************

   *** general parameters ***
    deriv=   0.           

   ***  level 49  model parameters  ***

       hspver=    2006.03               level=         49         
      version=       3.24            paramchk=          0         
       apwarn=          1                lite=          0         
       vgslim=          0             binUnit=          2         
       capMod=          3               xpart=          1         
       mobMod=          1              nqsMod=          0         
       stiMod=          0                 elm=          5         
     sfvtflag=          0                 tox=  6.32e-009 meter   
           xj=   1.7e-007 meter       binflag=          0         
         lmin=   2.6e-007 meter          lmax=     1e-005 meter   
         wmin=   1.9e-007 meter          wmax=     0.0001 meter   
         lref=          0 meter          wref=          0 meter   
         lint=   3.5e-008 meter          wint=   1.3e-008 meter   
        lmult=          1               wmult=          1         
           ll=   5.5e-015                 lln=    1.04717         
           lw=-4.71604e-014                 lwn=   0.953089         
          lwl=7.00545e-022                  wl=-3.14912e-014         
          wln=    1.02576                  ww=   2.3e-015         
          wwn=    0.96177                 wwl=-2.41672e-022         
          dwg=          0 m/V             dwb=   8.6e-009 m/V^1/2 
           xl=  -3.1e-008                  xw=   2.2e-008         
           a0=       0.85                 ags=       0.04 V^-1    
           b0=   4.6e-008 meter            b1=          0 meter   
         keta=      0.015 V^-1           voff=       -0.1 V       
        ngate=  1.16e+020 cm^-3           vbx=          0 V       
          vbm=         -3 V                xt=  1.55e-007 meter   
         vth0=     -0.632 V               nch=5.4852e+017 cm^-3   
         nsub=     6e+016 cm^-3           nlx=   1.2e-008 meter   
       gamma1=          0 V^-1/2       gamma2=          0 V^-1/2  
           k1=   0.914574 V^1/2            k2=  0.0412762         
           k3=   0.129383                 k3b=        0.4 V^-1    
           w0=1.00211e-009 meter          dvt0=        1.8         
         dvt1=       0.71                dvt2=      -0.07 V^-1    
        dvt0w=          0 meter^-1      dvt1w=          0 meter^-1
        dvt2w=          0 V^-1           dsub=       0.58         
         eta0=      0.005                etab=     -0.015 V^-1    
           u0=    0.00925 m^2/V/sec         ua=  3.15e-010 m/V     
           ub=1.04442e-018 (m/V)^2          uc=  -3.5e-011 V^-1    
         vsat=      85500 m/sec            a1=          0 v^-1    
           a2=       0.99               delta=      0.008 V       
         rdsw=        950 ohm-um         prwg= 0.00637557 V^-1    
         prwb=          0 V^-1/2           wr=          1         
         pclm=        0.6             pdiblc1=      0.006         
      pdiblc2=    0.00025             pdiblcb=          0 V^-1    
       pscbe1=   3.3e+008 V/m          pscbe2=     2e-007 V/m     
        drout=       0.56                pvag=          0         
      nfactor=        1.1                cdsc=4.52639e-005 f/m^2   
        cdscb=          0 f/V/m^2       cdscd=          0 f/V/m^2 
          cit=     0.0002 f/m^2        alpha0=1.34104e-006 m/V     
        beta0=    27.5998 V               dlc=     7e-009 meter   
          dwc=     6e-008 meter           clc=     1e-007 meter   
          cle=        0.6                cgso=3.3915e-010 f/m     
         cgdo=3.3915e-010 f/m            cgbo=6.55658e-010 f/m     
         cgsl=          0 f/m            cgdl=          0 f/m     
       ckappa=        0.6                  cf=          0 f/m     
         acde=       0.55 m/V            moin=         15 V^1/2   
         toxm=  6.62e-009 m            dtoxcv=          0 m       
          vfb (not used)                alpha1=  0.0561369 1/V     
         ijth=        0.1 A              noff=      0.565         
       voffcv=          0                 tcj=   0.000883 1/K     
        tcjsw=   0.000709 1/K          tcjswg=   0.000709 1/K     
          tpb=    0.00157 V/K           tpbsw=    0.00137 V/K     
       tpbswg=    0.00137 V/K             llc=   5.5e-015         
          lwc=-4.71604e-014                lwlc=7.00545e-022         
          wlc=-3.14912e-014                 wwc=   2.3e-015         
         wwlc=-2.41672e-022                tnom=     298.15 K       
          kt1=   -0.38409 V              kt1l=    -6e-009         
          kt2= -0.0415635                 ute=   -1.32361         
          ua1=     3e-010 m/V             ub1=-2.07047e-018 (m/V)^2 
          uc1=    -5e-011 m/V^2            at=      -2000 m/s     
          prt=        130         
          using Berkeley noise model       noiMod=          2         
         noia=3.5911e+019                noib=     3021.5         
         noic=6.7064e-012                  em=  4.24e+007         
           ef=     1.0829                  af=          1         
           kf=          0              gdsnoi=-1.23457e-029         
          using Berkeley diodes          using ACM 
          acm=        12                 hdif= 2.05e-007 meter    
         ldif=  6.5e-008 meter             js= 1.68e-007 amp/m^2  
          jsw=    4e-013 amp/m            xti=         3          
           nj=      1.07                   cj= 0.0009595 f/m^2    
           mj=     0.401                   pb=     0.807 V        
         cjsw=8.512e-011 f/m             mjsw=      0.45          
          php (not used)                  pbsw=         1 V        
       cjgate (not used)                 cjswg=3.0305e-010 f/m      
        mjswg=      0.45                pbswg=         1 V        
        lketa=    -1e-008               lvoff=   1.8e-009         
          lu0=-4.15007e-010                 lua=   1.5e-017         
          lub=    -7e-027                 luc=     4e-018         
        wketa=     1e-009               wvth0=     4e-009         
          wu0=-1.70015e-012                 wua=-1.67632e-016         
     wpdiblc2=     8e-011                wkt1=-9.43334e-010         
         wua1=     8e-018                wub1=   1.4e-025         
        pketa=    -6e-015               pvoff=    -3e-015         
        pvth0=     8e-015                 pk1=  -1.7e-014         
        peta0=     7e-015               petab=    -2e-015         
          pu0=-3.79996e-016                 pua=  -1.1e-023         
          puc=     5e-024               pvsat=  -5.8e-009         
       pdelta=     4e-016               ppclm=   1.3e-013         
      ppscbe1=    -7e-006            pnfactor=    -4e-014         
         pkt1=     5e-015                pua1=     1e-023         
          pat=  -7.5e-009         
 ***************************************************************************
 *** common model parameters  model name:   6:n08      model type:nmos   ***
 ***************************************************************************
     names  values   units     names  values   units     names  values   units
     -----  ------   -----     -----  ------   -----     -----  ------   -----

   1*** geometry parameters ***
       ld=  16.00n meters      lmlt=   1.00                wd=   0.    meters 
     wmlt=   1.00                xl=   0.    meters        xw=   0.    meters 
     lref=   0.    meters      wref=   0.    meters      lref=   0.    meters 
     wref=   0.    meters     xlref=   0.    meters     xwref=   0.    meters 
     lmin=   0.    meters      wmin=   0.    meters      lmax=   0.    meters 
     wmax=   0.    meters 

   2*** threshold voltage parameters ***
      vto= 700.00m volts        nss=   0.    1/cm**2      tpg=   1.00         
      phi= 700.00m volts      gamma= 400.00m v**0.5      bulk=  gnd           
    ngate=   0.    cm**3       nsub= 2.9e+16 1/cm**3   delvto=   0.    volts  

   3*** gate overlap capacitance parameters ***
     cgbo= 700.00p f/meter     cgdo= 220.00p f/meter     cgso= 220.00p f/meter
     meto=   0.    meters 

   4*** gate capacitance parameters ***
    capop=   2.00               cf1=   0.    volts        cf2= 100.00m volts  
      cf3=   1.00  volts        cf4=  50.00               cf5= 666.67m        
      cf6= 500.00               xqc= 500.00m              tox=  14.00n meters 
      cox=   2.47m f/m**2 

   5*** diffusion parasitic parameters ***
      acm=   0.                  is=  10.00f amps          js=   0.    a/m**2 
      jsw=   0.    amp/m        nds=   1.00               cbd=   0.    farad  
      cbs=   0.    farad         cj= 770.00u f/m**2      cjsw= 380.00p f/m    
   cjgate= 380.00p f/m           mj= 500.00m             mjsw= 380.00m        
       pb= 800.00m volts        php= 800.00m volts         tt=   0.    secs   
     hdif=   0.    meters      ldif=   0.    meters        rd=   0.    ohms   
       rs=   0.    ohms         rsh=   0.    ohms/sq       fc=   0.           
    alpha=   0.                 vcr=   0.    volts      iirat=   0.           
      rdc=   0.    ohms         rsc=   0.    ohms           n=   1.00         
     vnds=  -1.00  volts  

   6*** temperature effect parameters ***
     tlev=   0.               tlevc=   0.                  eg=   1.11  ev     
     gap1= 702.00u ev/deg      gap2=   1.11k deg          xti=   0.           
      bex=  -1.50               tcv=   0.    v/deg k      trd=   0.    /deg   
      trs=   0.    /deg         cta=   0.    /deg         ctp=   0.    /deg   

   7*** noise parameters ***
       kf=   0.                  af=   1.00              nlev=   2.00         
   gdsnoi=   1.00         

   ***  level  1  model parameters  ***

   lambda=  40.00m /v            kp= 110.00u a/v**2 
 ***************************************************************************
 *** common model parameters  model name:   6:p08      model type:pmos   ***
 ***************************************************************************
     names  values   units     names  values   units     names  values   units
     -----  ------   -----     -----  ------   -----     -----  ------   -----

   1*** geometry parameters ***
       ld=  14.00n meters      lmlt=   1.00                wd=   0.    meters 
     wmlt=   1.00                xl=   0.    meters        xw=   0.    meters 
     lref=   0.    meters      wref=   0.    meters      lref=   0.    meters 
     wref=   0.    meters     xlref=   0.    meters     xwref=   0.    meters 
     lmin=   0.    meters      wmin=   0.    meters      lmax=   0.    meters 
     wmax=   0.    meters 

   2*** threshold voltage parameters ***
      vto=-700.00m volts        nss=   0.    1/cm**2      tpg=   1.00         
      phi= 800.00m volts      gamma= 570.00m v**0.5      bulk=  gnd           
    ngate=   0.    cm**3       nsub= 5.9e+16 1/cm**3   delvto=   0.    volts  

   3*** gate overlap capacitance parameters ***
     cgbo= 700.00p f/meter     cgdo= 220.00p f/meter     cgso= 220.00p f/meter
     meto=   0.    meters 

   4*** gate capacitance parameters ***
    capop=   2.00               cf1=   0.    volts        cf2= 100.00m volts  
      cf3=   1.00  volts        cf4=  50.00               cf5= 666.67m        
      cf6= 500.00               xqc= 500.00m              tox=  14.00n meters 
      cox=   2.47m f/m**2 

   5*** diffusion parasitic parameters ***
      acm=   0.                  is=  10.00f amps          js=   0.    a/m**2 
      jsw=   0.    amp/m        nds=   1.00               cbd=   0.    farad  
      cbs=   0.    farad         cj= 560.00u f/m**2      cjsw= 350.00p f/m    
   cjgate= 350.00p f/m           mj= 500.00m             mjsw= 350.00m        
       pb= 800.00m volts        php= 800.00m volts         tt=   0.    secs   
     hdif=   0.    meters      ldif=   0.    meters        rd=   0.    ohms   
       rs=   0.    ohms         rsh=   0.    ohms/sq       fc=   0.           
    alpha=   0.                 vcr=   0.    volts      iirat=   0.           
      rdc=   0.    ohms         rsc=   0.    ohms           n=   1.00         
     vnds=  -1.00  volts  

   6*** temperature effect parameters ***
     tlev=   0.               tlevc=   0.                  eg=   1.11  ev     
     gap1= 702.00u ev/deg      gap2=   1.11k deg          xti=   0.           
      bex=  -1.50               tcv=   0.    v/deg k      trd=   0.    /deg   
      trs=   0.    /deg         cta=   0.    /deg         ctp=   0.    /deg   

   7*** noise parameters ***
       kf=   0.                  af=   1.00              nlev=   2.00         
   gdsnoi=   1.00         

   ***  level  1  model parameters  ***

   lambda=  50.00m /v            kp=  50.00u a/v**2 
 ***************************************************************************
 *** common model parameters  model name:   7:n08      model type:nmos   ***
 ***************************************************************************
     names  values   units     names  values   units     names  values   units
     -----  ------   -----     -----  ------   -----     -----  ------   -----

   1*** geometry parameters ***
       ld=  16.00n meters      lmlt=   1.00                wd=   0.    meters 
     wmlt=   1.00                xl=   0.    meters        xw=   0.    meters 
     lref=   0.    meters      wref=   0.    meters      lref=   0.    meters 
     wref=   0.    meters     xlref=   0.    meters     xwref=   0.    meters 
     lmin=   0.    meters      wmin=   0.    meters      lmax=   0.    meters 
     wmax=   0.    meters 

   2*** threshold voltage parameters ***
      vto= 700.00m volts        nss=   0.    1/cm**2      tpg=   1.00         
      phi= 700.00m volts      gamma= 400.00m v**0.5      bulk=  gnd           
    ngate=   0.    cm**3       nsub= 2.9e+16 1/cm**3   delvto=   0.    volts  

   3*** gate overlap capacitance parameters ***
     cgbo= 700.00p f/meter     cgdo= 220.00p f/meter     cgso= 220.00p f/meter
     meto=   0.    meters 

   4*** gate capacitance parameters ***
    capop=   2.00               cf1=   0.    volts        cf2= 100.00m volts  
      cf3=   1.00  volts        cf4=  50.00               cf5= 666.67m        
      cf6= 500.00               xqc= 500.00m              tox=  14.00n meters 
      cox=   2.47m f/m**2 

   5*** diffusion parasitic parameters ***
      acm=   0.                  is=  10.00f amps          js=   0.    a/m**2 
      jsw=   0.    amp/m        nds=   1.00               cbd=   0.    farad  
      cbs=   0.    farad         cj= 770.00u f/m**2      cjsw= 380.00p f/m    
   cjgate= 380.00p f/m           mj= 500.00m             mjsw= 380.00m        
       pb= 800.00m volts        php= 800.00m volts         tt=   0.    secs   
     hdif=   0.    meters      ldif=   0.    meters        rd=   0.    ohms   
       rs=   0.    ohms         rsh=   0.    ohms/sq       fc=   0.           
    alpha=   0.                 vcr=   0.    volts      iirat=   0.           
      rdc=   0.    ohms         rsc=   0.    ohms           n=   1.00         
     vnds=  -1.00  volts  

   6*** temperature effect parameters ***
     tlev=   0.               tlevc=   0.                  eg=   1.11  ev     
     gap1= 702.00u ev/deg      gap2=   1.11k deg          xti=   0.           
      bex=  -1.50               tcv=   0.    v/deg k      trd=   0.    /deg   
      trs=   0.    /deg         cta=   0.    /deg         ctp=   0.    /deg   

   7*** noise parameters ***
       kf=   0.                  af=   1.00              nlev=   2.00         
   gdsnoi=   1.00         

   ***  level  1  model parameters  ***

   lambda=  40.00m /v            kp= 110.00u a/v**2 
 ***************************************************************************
 *** common model parameters  model name:   7:p08      model type:pmos   ***
 ***************************************************************************
     names  values   units     names  values   units     names  values   units
     -----  ------   -----     -----  ------   -----     -----  ------   -----

   1*** geometry parameters ***
       ld=  14.00n meters      lmlt=   1.00                wd=   0.    meters 
     wmlt=   1.00                xl=   0.    meters        xw=   0.    meters 
     lref=   0.    meters      wref=   0.    meters      lref=   0.    meters 
     wref=   0.    meters     xlref=   0.    meters     xwref=   0.    meters 
     lmin=   0.    meters      wmin=   0.    meters      lmax=   0.    meters 
     wmax=   0.    meters 

   2*** threshold voltage parameters ***
      vto=-700.00m volts        nss=   0.    1/cm**2      tpg=   1.00         
      phi= 800.00m volts      gamma= 570.00m v**0.5      bulk=  gnd           
    ngate=   0.    cm**3       nsub= 5.9e+16 1/cm**3   delvto=   0.    volts  

   3*** gate overlap capacitance parameters ***
     cgbo= 700.00p f/meter     cgdo= 220.00p f/meter     cgso= 220.00p f/meter
     meto=   0.    meters 

   4*** gate capacitance parameters ***
    capop=   2.00               cf1=   0.    volts        cf2= 100.00m volts  
      cf3=   1.00  volts        cf4=  50.00               cf5= 666.67m        
      cf6= 500.00               xqc= 500.00m              tox=  14.00n meters 
      cox=   2.47m f/m**2 

   5*** diffusion parasitic parameters ***
      acm=   0.                  is=  10.00f amps          js=   0.    a/m**2 
      jsw=   0.    amp/m        nds=   1.00               cbd=   0.    farad  
      cbs=   0.    farad         cj= 560.00u f/m**2      cjsw= 350.00p f/m    
   cjgate= 350.00p f/m           mj= 500.00m             mjsw= 350.00m        
       pb= 800.00m volts        php= 800.00m volts         tt=   0.    secs   
     hdif=   0.    meters      ldif=   0.    meters        rd=   0.    ohms   
       rs=   0.    ohms         rsh=   0.    ohms/sq       fc=   0.           
    alpha=   0.                 vcr=   0.    volts      iirat=   0.           
      rdc=   0.    ohms         rsc=   0.    ohms           n=   1.00         
     vnds=  -1.00  volts  

   6*** temperature effect parameters ***
     tlev=   0.               tlevc=   0.                  eg=   1.11  ev     
     gap1= 702.00u ev/deg      gap2=   1.11k deg          xti=   0.           
      bex=  -1.50               tcv=   0.    v/deg k      trd=   0.    /deg   
      trs=   0.    /deg         cta=   0.    /deg         ctp=   0.    /deg   

   7*** noise parameters ***
       kf=   0.                  af=   1.00              nlev=   2.00         
   gdsnoi=   1.00         

   ***  level  1  model parameters  ***

   lambda=  50.00m /v            kp=  50.00u a/v**2 
 ***************************************************************************
 *** common model parameters  model name:   8:n08      model type:nmos   ***
 ***************************************************************************
     names  values   units     names  values   units     names  values   units
     -----  ------   -----     -----  ------   -----     -----  ------   -----

   1*** geometry parameters ***
       ld=  16.00n meters      lmlt=   1.00                wd=   0.    meters 
     wmlt=   1.00                xl=   0.    meters        xw=   0.    meters 
     lref=   0.    meters      wref=   0.    meters      lref=   0.    meters 
     wref=   0.    meters     xlref=   0.    meters     xwref=   0.    meters 
     lmin=   0.    meters      wmin=   0.    meters      lmax=   0.    meters 
     wmax=   0.    meters 

   2*** threshold voltage parameters ***
      vto= 700.00m volts        nss=   0.    1/cm**2      tpg=   1.00         
      phi= 700.00m volts      gamma= 400.00m v**0.5      bulk=  gnd           
    ngate=   0.    cm**3       nsub= 2.9e+16 1/cm**3   delvto=   0.    volts  

   3*** gate overlap capacitance parameters ***
     cgbo= 700.00p f/meter     cgdo= 220.00p f/meter     cgso= 220.00p f/meter
     meto=   0.    meters 

   4*** gate capacitance parameters ***
    capop=   2.00               cf1=   0.    volts        cf2= 100.00m volts  
      cf3=   1.00  volts        cf4=  50.00               cf5= 666.67m        
      cf6= 500.00               xqc= 500.00m              tox=  14.00n meters 
      cox=   2.47m f/m**2 

   5*** diffusion parasitic parameters ***
      acm=   0.                  is=  10.00f amps          js=   0.    a/m**2 
      jsw=   0.    amp/m        nds=   1.00               cbd=   0.    farad  
      cbs=   0.    farad         cj= 770.00u f/m**2      cjsw= 380.00p f/m    
   cjgate= 380.00p f/m           mj= 500.00m             mjsw= 380.00m        
       pb= 800.00m volts        php= 800.00m volts         tt=   0.    secs   
     hdif=   0.    meters      ldif=   0.    meters        rd=   0.    ohms   
       rs=   0.    ohms         rsh=   0.    ohms/sq       fc=   0.           
    alpha=   0.                 vcr=   0.    volts      iirat=   0.           
      rdc=   0.    ohms         rsc=   0.    ohms           n=   1.00         
     vnds=  -1.00  volts  

   6*** temperature effect parameters ***
     tlev=   0.               tlevc=   0.                  eg=   1.11  ev     
     gap1= 702.00u ev/deg      gap2=   1.11k deg          xti=   0.           
      bex=  -1.50               tcv=   0.    v/deg k      trd=   0.    /deg   
      trs=   0.    /deg         cta=   0.    /deg         ctp=   0.    /deg   

   7*** noise parameters ***
       kf=   0.                  af=   1.00              nlev=   2.00         
   gdsnoi=   1.00         

   ***  level  1  model parameters  ***

   lambda=  40.00m /v            kp= 110.00u a/v**2 
 ***************************************************************************
 *** common model parameters  model name:   8:p08      model type:pmos   ***
 ***************************************************************************
     names  values   units     names  values   units     names  values   units
     -----  ------   -----     -----  ------   -----     -----  ------   -----

   1*** geometry parameters ***
       ld=  14.00n meters      lmlt=   1.00                wd=   0.    meters 
     wmlt=   1.00                xl=   0.    meters        xw=   0.    meters 
     lref=   0.    meters      wref=   0.    meters      lref=   0.    meters 
     wref=   0.    meters     xlref=   0.    meters     xwref=   0.    meters 
     lmin=   0.    meters      wmin=   0.    meters      lmax=   0.    meters 
     wmax=   0.    meters 

   2*** threshold voltage parameters ***
      vto=-700.00m volts        nss=   0.    1/cm**2      tpg=   1.00         
      phi= 800.00m volts      gamma= 570.00m v**0.5      bulk=  gnd           
    ngate=   0.    cm**3       nsub= 5.9e+16 1/cm**3   delvto=   0.    volts  

   3*** gate overlap capacitance parameters ***
     cgbo= 700.00p f/meter     cgdo= 220.00p f/meter     cgso= 220.00p f/meter
     meto=   0.    meters 

   4*** gate capacitance parameters ***
    capop=   2.00               cf1=   0.    volts        cf2= 100.00m volts  
      cf3=   1.00  volts        cf4=  50.00               cf5= 666.67m        
      cf6= 500.00               xqc= 500.00m              tox=  14.00n meters 
      cox=   2.47m f/m**2 

   5*** diffusion parasitic parameters ***
      acm=   0.                  is=  10.00f amps          js=   0.    a/m**2 
      jsw=   0.    amp/m        nds=   1.00               cbd=   0.    farad  
      cbs=   0.    farad         cj= 560.00u f/m**2      cjsw= 350.00p f/m    
   cjgate= 350.00p f/m           mj= 500.00m             mjsw= 350.00m        
       pb= 800.00m volts        php= 800.00m volts         tt=   0.    secs   
     hdif=   0.    meters      ldif=   0.    meters        rd=   0.    ohms   
       rs=   0.    ohms         rsh=   0.    ohms/sq       fc=   0.           
    alpha=   0.                 vcr=   0.    volts      iirat=   0.           
      rdc=   0.    ohms         rsc=   0.    ohms           n=   1.00         
     vnds=  -1.00  volts  

   6*** temperature effect parameters ***
     tlev=   0.               tlevc=   0.                  eg=   1.11  ev     
     gap1= 702.00u ev/deg      gap2=   1.11k deg          xti=   0.           
      bex=  -1.50               tcv=   0.    v/deg k      trd=   0.    /deg   
      trs=   0.    /deg         cta=   0.    /deg         ctp=   0.    /deg   

   7*** noise parameters ***
       kf=   0.                  af=   1.00              nlev=   2.00         
   gdsnoi=   1.00         

   ***  level  1  model parameters  ***

   lambda=  50.00m /v            kp=  50.00u a/v**2 
 ***************************************************************************
 *** common model parameters  model name:   9:n08      model type:nmos   ***
 ***************************************************************************
     names  values   units     names  values   units     names  values   units
     -----  ------   -----     -----  ------   -----     -----  ------   -----

   1*** geometry parameters ***
       ld=  16.00n meters      lmlt=   1.00                wd=   0.    meters 
     wmlt=   1.00                xl=   0.    meters        xw=   0.    meters 
     lref=   0.    meters      wref=   0.    meters      lref=   0.    meters 
     wref=   0.    meters     xlref=   0.    meters     xwref=   0.    meters 
     lmin=   0.    meters      wmin=   0.    meters      lmax=   0.    meters 
     wmax=   0.    meters 

   2*** threshold voltage parameters ***
      vto= 700.00m volts        nss=   0.    1/cm**2      tpg=   1.00         
      phi= 700.00m volts      gamma= 400.00m v**0.5      bulk=  gnd           
    ngate=   0.    cm**3       nsub= 2.9e+16 1/cm**3   delvto=   0.    volts  

   3*** gate overlap capacitance parameters ***
     cgbo= 700.00p f/meter     cgdo= 220.00p f/meter     cgso= 220.00p f/meter
     meto=   0.    meters 

   4*** gate capacitance parameters ***
    capop=   2.00               cf1=   0.    volts        cf2= 100.00m volts  
      cf3=   1.00  volts        cf4=  50.00               cf5= 666.67m        
      cf6= 500.00               xqc= 500.00m              tox=  14.00n meters 
      cox=   2.47m f/m**2 

   5*** diffusion parasitic parameters ***
      acm=   0.                  is=  10.00f amps          js=   0.    a/m**2 
      jsw=   0.    amp/m        nds=   1.00               cbd=   0.    farad  
      cbs=   0.    farad         cj= 770.00u f/m**2      cjsw= 380.00p f/m    
   cjgate= 380.00p f/m           mj= 500.00m             mjsw= 380.00m        
       pb= 800.00m volts        php= 800.00m volts         tt=   0.    secs   
     hdif=   0.    meters      ldif=   0.    meters        rd=   0.    ohms   
       rs=   0.    ohms         rsh=   0.    ohms/sq       fc=   0.           
    alpha=   0.                 vcr=   0.    volts      iirat=   0.           
      rdc=   0.    ohms         rsc=   0.    ohms           n=   1.00         
     vnds=  -1.00  volts  

   6*** temperature effect parameters ***
     tlev=   0.               tlevc=   0.                  eg=   1.11  ev     
     gap1= 702.00u ev/deg      gap2=   1.11k deg          xti=   0.           
      bex=  -1.50               tcv=   0.    v/deg k      trd=   0.    /deg   
      trs=   0.    /deg         cta=   0.    /deg         ctp=   0.    /deg   

   7*** noise parameters ***
       kf=   0.                  af=   1.00              nlev=   2.00         
   gdsnoi=   1.00         

   ***  level  1  model parameters  ***

   lambda=  40.00m /v            kp= 110.00u a/v**2 
 ***************************************************************************
 *** common model parameters  model name:   9:p08      model type:pmos   ***
 ***************************************************************************
     names  values   units     names  values   units     names  values   units
     -----  ------   -----     -----  ------   -----     -----  ------   -----

   1*** geometry parameters ***
       ld=  14.00n meters      lmlt=   1.00                wd=   0.    meters 
     wmlt=   1.00                xl=   0.    meters        xw=   0.    meters 
     lref=   0.    meters      wref=   0.    meters      lref=   0.    meters 
     wref=   0.    meters     xlref=   0.    meters     xwref=   0.    meters 
     lmin=   0.    meters      wmin=   0.    meters      lmax=   0.    meters 
     wmax=   0.    meters 

   2*** threshold voltage parameters ***
      vto=-700.00m volts        nss=   0.    1/cm**2      tpg=   1.00         
      phi= 800.00m volts      gamma= 570.00m v**0.5      bulk=  gnd           
    ngate=   0.    cm**3       nsub= 5.9e+16 1/cm**3   delvto=   0.    volts  

   3*** gate overlap capacitance parameters ***
     cgbo= 700.00p f/meter     cgdo= 220.00p f/meter     cgso= 220.00p f/meter
     meto=   0.    meters 

   4*** gate capacitance parameters ***
    capop=   2.00               cf1=   0.    volts        cf2= 100.00m volts  
      cf3=   1.00  volts        cf4=  50.00               cf5= 666.67m        
      cf6= 500.00               xqc= 500.00m              tox=  14.00n meters 
      cox=   2.47m f/m**2 

   5*** diffusion parasitic parameters ***
      acm=   0.                  is=  10.00f amps          js=   0.    a/m**2 
      jsw=   0.    amp/m        nds=   1.00               cbd=   0.    farad  
      cbs=   0.    farad         cj= 560.00u f/m**2      cjsw= 350.00p f/m    
   cjgate= 350.00p f/m           mj= 500.00m             mjsw= 350.00m        
       pb= 800.00m volts        php= 800.00m volts         tt=   0.    secs   
     hdif=   0.    meters      ldif=   0.    meters        rd=   0.    ohms   
       rs=   0.    ohms         rsh=   0.    ohms/sq       fc=   0.           
    alpha=   0.                 vcr=   0.    volts      iirat=   0.           
      rdc=   0.    ohms         rsc=   0.    ohms           n=   1.00         
     vnds=  -1.00  volts  

   6*** temperature effect parameters ***
     tlev=   0.               tlevc=   0.                  eg=   1.11  ev     
     gap1= 702.00u ev/deg      gap2=   1.11k deg          xti=   0.           
      bex=  -1.50               tcv=   0.    v/deg k      trd=   0.    /deg   
      trs=   0.    /deg         cta=   0.    /deg         ctp=   0.    /deg   

   7*** noise parameters ***
       kf=   0.                  af=   1.00              nlev=   2.00         
   gdsnoi=   1.00         

   ***  level  1  model parameters  ***

   lambda=  50.00m /v            kp=  50.00u a/v**2 
 ***************************************************************************
 *** common model parameters  model name:  10:n08      model type:nmos   ***
 ***************************************************************************
     names  values   units     names  values   units     names  values   units
     -----  ------   -----     -----  ------   -----     -----  ------   -----

   1*** geometry parameters ***
       ld=  16.00n meters      lmlt=   1.00                wd=   0.    meters 
     wmlt=   1.00                xl=   0.    meters        xw=   0.    meters 
     lref=   0.    meters      wref=   0.    meters      lref=   0.    meters 
     wref=   0.    meters     xlref=   0.    meters     xwref=   0.    meters 
     lmin=   0.    meters      wmin=   0.    meters      lmax=   0.    meters 
     wmax=   0.    meters 

   2*** threshold voltage parameters ***
      vto= 700.00m volts        nss=   0.    1/cm**2      tpg=   1.00         
      phi= 700.00m volts      gamma= 400.00m v**0.5      bulk=  gnd           
    ngate=   0.    cm**3       nsub= 2.9e+16 1/cm**3   delvto=   0.    volts  

   3*** gate overlap capacitance parameters ***
     cgbo= 700.00p f/meter     cgdo= 220.00p f/meter     cgso= 220.00p f/meter
     meto=   0.    meters 

   4*** gate capacitance parameters ***
    capop=   2.00               cf1=   0.    volts        cf2= 100.00m volts  
      cf3=   1.00  volts        cf4=  50.00               cf5= 666.67m        
      cf6= 500.00               xqc= 500.00m              tox=  14.00n meters 
      cox=   2.47m f/m**2 

   5*** diffusion parasitic parameters ***
      acm=   0.                  is=  10.00f amps          js=   0.    a/m**2 
      jsw=   0.    amp/m        nds=   1.00               cbd=   0.    farad  
      cbs=   0.    farad         cj= 770.00u f/m**2      cjsw= 380.00p f/m    
   cjgate= 380.00p f/m           mj= 500.00m             mjsw= 380.00m        
       pb= 800.00m volts        php= 800.00m volts         tt=   0.    secs   
     hdif=   0.    meters      ldif=   0.    meters        rd=   0.    ohms   
       rs=   0.    ohms         rsh=   0.    ohms/sq       fc=   0.           
    alpha=   0.                 vcr=   0.    volts      iirat=   0.           
      rdc=   0.    ohms         rsc=   0.    ohms           n=   1.00         
     vnds=  -1.00  volts  

   6*** temperature effect parameters ***
     tlev=   0.               tlevc=   0.                  eg=   1.11  ev     
     gap1= 702.00u ev/deg      gap2=   1.11k deg          xti=   0.           
      bex=  -1.50               tcv=   0.    v/deg k      trd=   0.    /deg   
      trs=   0.    /deg         cta=   0.    /deg         ctp=   0.    /deg   

   7*** noise parameters ***
       kf=   0.                  af=   1.00              nlev=   2.00         
   gdsnoi=   1.00         

   ***  level  1  model parameters  ***

   lambda=  40.00m /v            kp= 110.00u a/v**2 
 ***************************************************************************
 *** common model parameters  model name:  10:p08      model type:pmos   ***
 ***************************************************************************
     names  values   units     names  values   units     names  values   units
     -----  ------   -----     -----  ------   -----     -----  ------   -----

   1*** geometry parameters ***
       ld=  14.00n meters      lmlt=   1.00                wd=   0.    meters 
     wmlt=   1.00                xl=   0.    meters        xw=   0.    meters 
     lref=   0.    meters      wref=   0.    meters      lref=   0.    meters 
     wref=   0.    meters     xlref=   0.    meters     xwref=   0.    meters 
     lmin=   0.    meters      wmin=   0.    meters      lmax=   0.    meters 
     wmax=   0.    meters 

   2*** threshold voltage parameters ***
      vto=-700.00m volts        nss=   0.    1/cm**2      tpg=   1.00         
      phi= 800.00m volts      gamma= 570.00m v**0.5      bulk=  gnd           
    ngate=   0.    cm**3       nsub= 5.9e+16 1/cm**3   delvto=   0.    volts  

   3*** gate overlap capacitance parameters ***
     cgbo= 700.00p f/meter     cgdo= 220.00p f/meter     cgso= 220.00p f/meter
     meto=   0.    meters 

   4*** gate capacitance parameters ***
    capop=   2.00               cf1=   0.    volts        cf2= 100.00m volts  
      cf3=   1.00  volts        cf4=  50.00               cf5= 666.67m        
      cf6= 500.00               xqc= 500.00m              tox=  14.00n meters 
      cox=   2.47m f/m**2 

   5*** diffusion parasitic parameters ***
      acm=   0.                  is=  10.00f amps          js=   0.    a/m**2 
      jsw=   0.    amp/m        nds=   1.00               cbd=   0.    farad  
      cbs=   0.    farad         cj= 560.00u f/m**2      cjsw= 350.00p f/m    
   cjgate= 350.00p f/m           mj= 500.00m             mjsw= 350.00m        
       pb= 800.00m volts        php= 800.00m volts         tt=   0.    secs   
     hdif=   0.    meters      ldif=   0.    meters        rd=   0.    ohms   
       rs=   0.    ohms         rsh=   0.    ohms/sq       fc=   0.           
    alpha=   0.                 vcr=   0.    volts      iirat=   0.           
      rdc=   0.    ohms         rsc=   0.    ohms           n=   1.00         
     vnds=  -1.00  volts  

   6*** temperature effect parameters ***
     tlev=   0.               tlevc=   0.                  eg=   1.11  ev     
     gap1= 702.00u ev/deg      gap2=   1.11k deg          xti=   0.           
      bex=  -1.50               tcv=   0.    v/deg k      trd=   0.    /deg   
      trs=   0.    /deg         cta=   0.    /deg         ctp=   0.    /deg   

   7*** noise parameters ***
       kf=   0.                  af=   1.00              nlev=   2.00         
   gdsnoi=   1.00         

   ***  level  1  model parameters  ***

   lambda=  50.00m /v            kp=  50.00u a/v**2 
 ***************************************************************************
 *** common model parameters  model name:  11:n08      model type:nmos   ***
 ***************************************************************************
     names  values   units     names  values   units     names  values   units
     -----  ------   -----     -----  ------   -----     -----  ------   -----

   1*** geometry parameters ***
       ld=  16.00n meters      lmlt=   1.00                wd=   0.    meters 
     wmlt=   1.00                xl=   0.    meters        xw=   0.    meters 
     lref=   0.    meters      wref=   0.    meters      lref=   0.    meters 
     wref=   0.    meters     xlref=   0.    meters     xwref=   0.    meters 
     lmin=   0.    meters      wmin=   0.    meters      lmax=   0.    meters 
     wmax=   0.    meters 

   2*** threshold voltage parameters ***
      vto= 700.00m volts        nss=   0.    1/cm**2      tpg=   1.00         
      phi= 700.00m volts      gamma= 400.00m v**0.5      bulk=  gnd           
    ngate=   0.    cm**3       nsub= 2.9e+16 1/cm**3   delvto=   0.    volts  

   3*** gate overlap capacitance parameters ***
     cgbo= 700.00p f/meter     cgdo= 220.00p f/meter     cgso= 220.00p f/meter
     meto=   0.    meters 

   4*** gate capacitance parameters ***
    capop=   2.00               cf1=   0.    volts        cf2= 100.00m volts  
      cf3=   1.00  volts        cf4=  50.00               cf5= 666.67m        
      cf6= 500.00               xqc= 500.00m              tox=  14.00n meters 
      cox=   2.47m f/m**2 

   5*** diffusion parasitic parameters ***
      acm=   0.                  is=  10.00f amps          js=   0.    a/m**2 
      jsw=   0.    amp/m        nds=   1.00               cbd=   0.    farad  
      cbs=   0.    farad         cj= 770.00u f/m**2      cjsw= 380.00p f/m    
   cjgate= 380.00p f/m           mj= 500.00m             mjsw= 380.00m        
       pb= 800.00m volts        php= 800.00m volts         tt=   0.    secs   
     hdif=   0.    meters      ldif=   0.    meters        rd=   0.    ohms   
       rs=   0.    ohms         rsh=   0.    ohms/sq       fc=   0.           
    alpha=   0.                 vcr=   0.    volts      iirat=   0.           
      rdc=   0.    ohms         rsc=   0.    ohms           n=   1.00         
     vnds=  -1.00  volts  

   6*** temperature effect parameters ***
     tlev=   0.               tlevc=   0.                  eg=   1.11  ev     
     gap1= 702.00u ev/deg      gap2=   1.11k deg          xti=   0.           
      bex=  -1.50               tcv=   0.    v/deg k      trd=   0.    /deg   
      trs=   0.    /deg         cta=   0.    /deg         ctp=   0.    /deg   

   7*** noise parameters ***
       kf=   0.                  af=   1.00              nlev=   2.00         
   gdsnoi=   1.00         

   ***  level  1  model parameters  ***

   lambda=  40.00m /v            kp= 110.00u a/v**2 
 ***************************************************************************
 *** common model parameters  model name:  11:p08      model type:pmos   ***
 ***************************************************************************
     names  values   units     names  values   units     names  values   units
     -----  ------   -----     -----  ------   -----     -----  ------   -----

   1*** geometry parameters ***
       ld=  14.00n meters      lmlt=   1.00                wd=   0.    meters 
     wmlt=   1.00                xl=   0.    meters        xw=   0.    meters 
     lref=   0.    meters      wref=   0.    meters      lref=   0.    meters 
     wref=   0.    meters     xlref=   0.    meters     xwref=   0.    meters 
     lmin=   0.    meters      wmin=   0.    meters      lmax=   0.    meters 
     wmax=   0.    meters 

   2*** threshold voltage parameters ***
      vto=-700.00m volts        nss=   0.    1/cm**2      tpg=   1.00         
      phi= 800.00m volts      gamma= 570.00m v**0.5      bulk=  gnd           
    ngate=   0.    cm**3       nsub= 5.9e+16 1/cm**3   delvto=   0.    volts  

   3*** gate overlap capacitance parameters ***
     cgbo= 700.00p f/meter     cgdo= 220.00p f/meter     cgso= 220.00p f/meter
     meto=   0.    meters 

   4*** gate capacitance parameters ***
    capop=   2.00               cf1=   0.    volts        cf2= 100.00m volts  
      cf3=   1.00  volts        cf4=  50.00               cf5= 666.67m        
      cf6= 500.00               xqc= 500.00m              tox=  14.00n meters 
      cox=   2.47m f/m**2 

   5*** diffusion parasitic parameters ***
      acm=   0.                  is=  10.00f amps          js=   0.    a/m**2 
      jsw=   0.    amp/m        nds=   1.00               cbd=   0.    farad  
      cbs=   0.    farad         cj= 560.00u f/m**2      cjsw= 350.00p f/m    
   cjgate= 350.00p f/m           mj= 500.00m             mjsw= 350.00m        
       pb= 800.00m volts        php= 800.00m volts         tt=   0.    secs   
     hdif=   0.    meters      ldif=   0.    meters        rd=   0.    ohms   
       rs=   0.    ohms         rsh=   0.    ohms/sq       fc=   0.           
    alpha=   0.                 vcr=   0.    volts      iirat=   0.           
      rdc=   0.    ohms         rsc=   0.    ohms           n=   1.00         
     vnds=  -1.00  volts  

   6*** temperature effect parameters ***
     tlev=   0.               tlevc=   0.                  eg=   1.11  ev     
     gap1= 702.00u ev/deg      gap2=   1.11k deg          xti=   0.           
      bex=  -1.50               tcv=   0.    v/deg k      trd=   0.    /deg   
      trs=   0.    /deg         cta=   0.    /deg         ctp=   0.    /deg   

   7*** noise parameters ***
       kf=   0.                  af=   1.00              nlev=   2.00         
   gdsnoi=   1.00         

   ***  level  1  model parameters  ***

   lambda=  50.00m /v            kp=  50.00u a/v**2 
 ***************************************************************************
 *** common model parameters  model name:  27:n08      model type:nmos   ***
 ***************************************************************************
     names  values   units     names  values   units     names  values   units
     -----  ------   -----     -----  ------   -----     -----  ------   -----

   1*** geometry parameters ***
       ld=  16.00n meters      lmlt=   1.00                wd=   0.    meters 
     wmlt=   1.00                xl=   0.    meters        xw=   0.    meters 
     lref=   0.    meters      wref=   0.    meters      lref=   0.    meters 
     wref=   0.    meters     xlref=   0.    meters     xwref=   0.    meters 
     lmin=   0.    meters      wmin=   0.    meters      lmax=   0.    meters 
     wmax=   0.    meters 

   2*** threshold voltage parameters ***
      vto= 700.00m volts        nss=   0.    1/cm**2      tpg=   1.00         
      phi= 700.00m volts      gamma= 400.00m v**0.5      bulk=  gnd           
    ngate=   0.    cm**3       nsub= 2.9e+16 1/cm**3   delvto=   0.    volts  

   3*** gate overlap capacitance parameters ***
     cgbo= 700.00p f/meter     cgdo= 220.00p f/meter     cgso= 220.00p f/meter
     meto=   0.    meters 

   4*** gate capacitance parameters ***
    capop=   2.00               cf1=   0.    volts        cf2= 100.00m volts  
      cf3=   1.00  volts        cf4=  50.00               cf5= 666.67m        
      cf6= 500.00               xqc= 500.00m              tox=  14.00n meters 
      cox=   2.47m f/m**2 

   5*** diffusion parasitic parameters ***
      acm=   0.                  is=  10.00f amps          js=   0.    a/m**2 
      jsw=   0.    amp/m        nds=   1.00               cbd=   0.    farad  
      cbs=   0.    farad         cj= 770.00u f/m**2      cjsw= 380.00p f/m    
   cjgate= 380.00p f/m           mj= 500.00m             mjsw= 380.00m        
       pb= 800.00m volts        php= 800.00m volts         tt=   0.    secs   
     hdif=   0.    meters      ldif=   0.    meters        rd=   0.    ohms   
       rs=   0.    ohms         rsh=   0.    ohms/sq       fc=   0.           
    alpha=   0.                 vcr=   0.    volts      iirat=   0.           
      rdc=   0.    ohms         rsc=   0.    ohms           n=   1.00         
     vnds=  -1.00  volts  

   6*** temperature effect parameters ***
     tlev=   0.               tlevc=   0.                  eg=   1.11  ev     
     gap1= 702.00u ev/deg      gap2=   1.11k deg          xti=   0.           
      bex=  -1.50               tcv=   0.    v/deg k      trd=   0.    /deg   
      trs=   0.    /deg         cta=   0.    /deg         ctp=   0.    /deg   

   7*** noise parameters ***
       kf=   0.                  af=   1.00              nlev=   2.00         
   gdsnoi=   1.00         

   ***  level  1  model parameters  ***

   lambda=  40.00m /v            kp= 110.00u a/v**2 
 ***************************************************************************
 *** common model parameters  model name:  27:p08      model type:pmos   ***
 ***************************************************************************
     names  values   units     names  values   units     names  values   units
     -----  ------   -----     -----  ------   -----     -----  ------   -----

   1*** geometry parameters ***
       ld=  14.00n meters      lmlt=   1.00                wd=   0.    meters 
     wmlt=   1.00                xl=   0.    meters        xw=   0.    meters 
     lref=   0.    meters      wref=   0.    meters      lref=   0.    meters 
     wref=   0.    meters     xlref=   0.    meters     xwref=   0.    meters 
     lmin=   0.    meters      wmin=   0.    meters      lmax=   0.    meters 
     wmax=   0.    meters 

   2*** threshold voltage parameters ***
[...]
  vbs          0.           0.           0.        -171.8447n      0.     
  vth       -397.3947m   -397.3947m    419.0454m    419.0455m   -459.1981m
  vdsat      -45.3381m    -45.3381m      1.2614       1.2614      -2.0438 
  vod        397.3943m    397.3941m      3.1810       3.1810      -3.1408 
  beta         2.7178m      2.7178m      1.6943m      1.6943m      1.2382m
  gam eff    608.2173m    608.2173m    766.6028m    766.6028m    608.2173m
  gm           8.3866n      8.3866n      0.           0.          90.2021p
  gds        193.1866p    193.1875p      4.0209m      4.0209m      2.6006m
  gmb          2.6370n      2.6370n     52.9166p     52.9166p    156.9080p
  cdtot        3.6596f      3.6596f      6.5130f      6.5130f     12.7297f
  cgtot        4.6727f      4.6727f      4.3343f      4.3343f      7.7482f
  cstot        5.7275f      5.7275f      5.5557f      5.5557f     10.8987f
  cbtot        7.1366f      7.1366f      4.4270f      4.4270f      9.2736f
  cgs          1.7285f      1.7285f      2.0478f      2.0478f      3.8670f
  cgd          1.7311f      1.7311f      2.0610f      2.0610f      3.9103f



 subckt     xsubadc.xc   xsubadc.xc   xsubadc.xc   xsubadc.xc   xsubadc.xc
 element  100:mnm1     101:mpm2     101:mnm1     102:mpm2     102:mpm1    
 model      0:n18        0:p18        0:n18        0:p18        0:p18     
 region         Cutoff       Cutoff       Linear       Cutoff       Linear
  id           1.8382n   -264.8496p    972.1828u   -545.7425a     -1.1920n
  ibs       -3.933e-25    3.477e-26   -1.989e-19      0.         1.545e-25
  ibd        -71.7267p      7.6098p     -2.3930a    3.176e-23    3.161e-23
  vgs        343.6895n   -744.4130n      3.6000    -644.7753n     -3.6000 
  vds          3.6000      -3.3151     284.9202m   -462.8523n   -462.8523n
  vbs          0.           0.           0.           0.           0.     
  vth        365.8435m   -402.2861m    415.4903m   -459.1981m   -459.1981m
  vdsat       42.4474m    -45.3391m      1.2604     -45.3538m     -2.0438 
  vod       -365.8432m    402.2854m      3.1845     459.1975m     -3.1408 
  beta         4.8301m      2.7128m      1.6986m      2.6534m      1.2382m
  gam eff    766.6028m    608.2173m    766.7266m    608.2173m    608.2173m
  gm          52.7110n      7.0537n      0.          14.5719f     56.0848p
  gds          1.8360n    160.0581p      2.9691m      1.1791n      2.6006m
  gmb         12.1825n      2.2455n     76.1625u      5.3515f     97.5604p
  cdtot        1.6082f      3.7179f      6.0013f      5.7270f     12.7297f
  cgtot        2.3701f      4.6726f      4.3267f      4.6721f      7.7482f
  cstot        2.5314f      5.7274f      5.4898f      5.7266f     10.8987f
  cbtot        3.4693f      7.1948f      4.1408f      9.2026f      9.2736f
  cgs        760.2248a      1.7284f      2.1318f      1.7273f      3.8670f
  cgd        759.9589a      1.7311f      1.9615f      1.7316f      3.9103f



 subckt     xsubadc.xc   xsubadc.xc   xsubadc.xc   xsubadc.xc   xsubadc.xc
 element  102:mnm1     102:mnm2     103:mpm2     103:mpm1     103:mnm1    
 model      0:n18        0:n18        0:p18        0:p18        0:n18     
 region         Cutoff       Cutoff       Cutoff       Cutoff       Linear
  id           1.1513n      1.1879n   -314.9987p   -315.0003p    677.8834p
  ibs       -2.465e-25     -2.3914a    4.131e-26    4.131e-26   -1.448e-25
  ibd        -27.7564p     -2.3944a     16.7422p     16.7423p   -1.514e-23
  vgs        343.6895n    495.6480m   -462.8523n   -644.7759n      3.6000 
  vds          3.1044     495.6482m     -3.6000      -3.6000     171.8447n
  vbs          0.          -3.1044       0.           0.           0.     
  vth        373.1684m    818.6270m   -397.3947m   -397.3947m    419.0454m
  vdsat       42.4454m     47.2603m    -45.3381m    -45.3381m      1.2614 
  vod       -373.1680m   -322.9790m    397.3943m    397.3941m      3.1810 
  beta         4.8321m      5.1435m      2.7178m      2.7178m      1.6943m
  gam eff    766.6028m    872.1527m    608.2173m    608.2173m    766.6028m
  gm          33.0802n     39.0578n      8.3866n      8.3866n      0.     
  gds          1.0166n      2.8141n    193.1866p    193.1875p      4.0209m
  gmb          7.9210n      3.1451n      2.6370n      2.6370n     52.9166p
  cdtot        1.6539f      1.6082f      3.6596f      3.6596f      6.5130f
  cgtot        2.3700f      1.9991f      4.6727f      4.6727f      4.3343f
  cstot        2.5314f      1.6542f      5.7275f      5.7275f      5.5557f
  cbtot        3.5151f      2.2212f      7.1366f      7.1366f      4.4270f
  cgs        760.1857a    760.2068a      1.7285f      1.7285f      2.0478f
  cgd        759.9594a    759.9494a      1.7311f      1.7311f      2.0610f



 subckt     xsubadc.xc   xsubadc.xc   xsubadc.xc   xsubadc.xc   xsubadc.xc
 element  103:mnm2     104:mpm2     104:mnm1     105:mpm2     105:mnm1    
 model      0:n18        0:p18        0:n18        0:p18        0:n18     
 region         Linear       Cutoff       Linear       Linear       Cutoff
  id         677.8833p   -315.0011p    338.9436p   -972.1838u      1.2360n
  ibs       -1.543e-23    4.131e-26   -7.238e-26    1.218e-19   -2.646e-25
  ibd       -3.043e-23     16.7423p   -7.572e-24      1.8753a    -32.7376p
  vgs          3.6000    -744.4000n      3.6000      -3.6000      85.9229n
  vds        171.8447n     -3.6000      85.9229n   -416.1560m      3.1838 
  vbs       -171.8447n      0.           0.           0.           0.     
  vth        419.0455m   -397.3947m    419.0454m   -452.6653m    371.9936m
  vdsat        1.2614     -45.3381m      1.2614      -2.0458      42.4457m
  vod          3.1810     397.3940m      3.1810      -3.1473    -371.9935m
  beta         1.6943m      2.7178m      1.6943m      1.2409m      4.8318m
  gam eff    766.6028m    608.2173m    766.6028m    608.2036m    766.6028m
  gm           0.           8.3867n      0.          75.9708u     35.5037n
  gds          4.0209m    193.1881p      4.0209m      2.1194m      1.1170n
  gmb         52.9166p      2.6370n     26.4585p     82.7881u      8.4538n
  cdtot        6.5130f      3.6596f      6.5130f     11.1521f      1.6460f
  cgtot        4.3343f      4.6727f      4.3343f      7.7189f      2.3700f
  cstot        5.5557f      5.7275f      5.5557f     10.7184f      2.5314f
  cbtot        4.4270f      7.1366f      4.4270f      8.3958f      3.5072f
  cgs          2.0478f      1.7285f      2.0478f      4.1277f    760.1915a
  cgd          2.0610f      1.7311f      2.0610f      3.6082f    759.9594a



 subckt     xsubadc.xc   xsubadc.xc   xsubadc.xc   xsubadc.xc   xsubadc.xc
 element  106:mpm2     106:mpm1     106:mnm1     106:mnm2     107:mpm2    
 model      0:p18        0:p18        0:n18        0:n18        0:p18     
 region         Cutoff       Cutoff       Linear       Linear       Linear
  id        -315.0003p   -315.0011p    677.8859p    677.8860p     -1.9171n
  ibs        4.131e-26    4.131e-26   -1.448e-25   -1.543e-23    2.486e-25
  ibd         16.7423p     16.7423p   -1.514e-23   -3.043e-23    5.083e-23
  vgs       -644.7753n   -744.4000n      3.6000       3.6000      -3.6000 
  vds         -3.6000      -3.6000     171.8454n    171.8454n   -744.4000n
  vbs          0.           0.           0.        -171.8454n      0.     
  vth       -397.3947m   -397.3947m    419.0454m    419.0455m   -459.1981m
  vdsat      -45.3381m    -45.3381m      1.2614       1.2614      -2.0438 
  vod        397.3941m    397.3940m      3.1810       3.1810      -3.1408 
  beta         2.7178m      2.7178m      1.6943m      1.6943m      1.2382m
  gam eff    608.2173m    608.2173m    766.6028m    766.6028m    608.2173m
  gm           8.3866n      8.3867n      0.           0.          90.2005p
  gds        193.1875p    193.1881p      4.0209m      4.0209m      2.6006m
  gmb          2.6370n      2.6370n     52.9168p     52.9168p    156.9052p
  cdtot        3.6596f      3.6596f      6.5130f      6.5130f     12.7297f
  cgtot        4.6727f      4.6727f      4.3343f      4.3343f      7.7482f
  cstot        5.7275f      5.7275f      5.5557f      5.5557f     10.8987f
  cbtot        7.1366f      7.1366f      4.4270f      4.4270f      9.2736f
  cgs          1.7285f      1.7285f      2.0478f      2.0478f      3.8670f
  cgd          1.7311f      1.7311f      2.0610f      2.0610f      3.9103f



 subckt     xsubadc.xc   xsubadc.xc   xsubadc.xc   xsubadc.xc   xsubadc.xc
 element  107:mpm1     107:mnm1     107:mnm2     108:mpm2     108:mnm1    
 model      0:p18        0:n18        0:n18        0:p18        0:n18     
 region         Cutoff       Linear       Cutoff       Cutoff       Linear
  id        -877.7083a      1.8417n      1.8381n   -315.0011p    338.9436p
  ibs          0.        -3.933e-25   -4.193e-23    4.131e-26   -7.238e-26
  ibd        5.108e-23   -4.115e-23    -71.7255p     16.7423p   -7.572e-24
  vgs       -644.7759n      3.6000    -123.1913n   -744.4000n      3.6000 
  vds       -744.4000n    466.8821n      3.6000      -3.6000      85.9228n
  vbs          0.           0.        -466.8821n      0.           0.     
  vth       -459.1981m    419.0454m    365.8436m   -397.3947m    419.0454m
  vdsat      -45.3538m      1.2614      42.4474m    -45.3381m      1.2614 
  vod        459.1974m      3.1810    -365.8437m    397.3940m      3.1810 
  beta         2.6534m      1.6943m      4.8301m      2.7178m      1.6943m
  gam eff    608.2173m    766.6028m    766.6028m    608.2173m    766.6028m
  gm          23.4357f      0.          52.7101n      8.3867n      0.     
  gds          1.1791n      4.0209m      1.8360n    193.1881p      4.0209m
  gmb          8.6067f    143.7683p     12.1823n      2.6370n     26.4585p
  cdtot        5.7270f      6.5130f      1.6082f      3.6596f      6.5130f
  cgtot        4.6721f      4.3343f      2.3701f      4.6727f      4.3343f
  cstot        5.7266f      5.5557f      2.5314f      5.7275f      5.5557f
  cbtot        9.2026f      4.4270f      3.4693f      7.1366f      4.4270f
  cgs          1.7273f      2.0478f    760.2248a      1.7285f      2.0478f
  cgd          1.7316f      2.0610f    759.9589a      1.7311f      2.0610f



 subckt     xsubadc.xc   xsubadc.xc   xsubadc.xc   xsubadc.xc   xsubadc.xc
 element  109:mpm2     109:mnm1     110:mpm2     110:mpm1     110:mnm1    
 model      0:p18        0:n18        0:p18        0:p18        0:n18     
 region         Linear       Cutoff       Cutoff       Cutoff       Linear
  id        -972.1838u      1.2360n   -315.0003p   -315.0011p    677.8860p
  ibs        1.218e-19   -2.646e-25    4.131e-26    4.131e-26   -1.448e-25
  ibd          1.8753a    -32.7376p     16.7423p     16.7423p   -1.514e-23
  vgs         -3.6000      85.9228n   -644.7753n   -744.4000n      3.6000 
  vds       -416.1560m      3.1838      -3.6000      -3.6000     171.8454n
  vbs          0.           0.           0.           0.           0.     
  vth       -452.6653m    371.9936m   -397.3947m   -397.3947m    419.0454m
  vdsat       -2.0458      42.4457m    -45.3381m    -45.3381m      1.2614 
  vod         -3.1473    -371.9935m    397.3941m    397.3940m      3.1810 
  beta         1.2409m      4.8318m      2.7178m      2.7178m      1.6943m
  gam eff    608.2036m    766.6028m    608.2173m    608.2173m    766.6028m
  gm          75.9708u     35.5037n      8.3866n      8.3867n      0.     
  gds          2.1194m      1.1170n    193.1875p    193.1881p      4.0209m
  gmb         82.7881u      8.4538n      2.6370n      2.6370n     52.9168p
  cdtot       11.1521f      1.6460f      3.6596f      3.6596f      6.5130f
  cgtot        7.7189f      2.3700f      4.6727f      4.6727f      4.3343f
  cstot       10.7184f      2.5314f      5.7275f      5.7275f      5.5557f
  cbtot        8.3958f      3.5072f      7.1366f      7.1366f      4.4270f
  cgs          4.1277f    760.1915a      1.7285f      1.7285f      2.0478f
  cgd          3.6082f    759.9594a      1.7311f      1.7311f      2.0610f



 subckt     xsubadc.xc   xsubadc.xc   xsubadc.xc   xsubadc.xc   xsubadc.xc
 element  110:mnm2     111:mpm2     111:mpm1     111:mnm1     111:mnm2    
 model      0:n18        0:p18        0:p18        0:n18        0:n18     
 region         Linear       Linear       Cutoff       Linear       Cutoff
  id         677.8860p     -1.9171n   -877.7083a      1.8417n      1.8381n
  ibs       -1.543e-23    2.486e-25      0.        -3.933e-25   -4.193e-23
  ibd       -3.043e-23    5.083e-23    5.108e-23   -4.115e-23    -71.7255p
  vgs          3.6000      -3.6000    -644.7759n      3.6000    -123.1913n
  vds        171.8454n   -744.4000n   -744.4000n    466.8821n      3.6000 
  vbs       -171.8454n      0.           0.           0.        -466.8821n
  vth        419.0455m   -459.1981m   -459.1981m    419.0454m    365.8436m
  vdsat        1.2614      -2.0438     -45.3538m      1.2614      42.4474m
  vod          3.1810      -3.1408     459.1974m      3.1810    -365.8437m
  beta         1.6943m      1.2382m      2.6534m      1.6943m      4.8301m
  gam eff    766.6028m    608.2173m    608.2173m    766.6028m    766.6028m
  gm           0.          90.2005p     23.4357f      0.          52.7101n
  gds          4.0209m      2.6006m      1.1791n      4.0209m      1.8360n
  gmb         52.9168p    156.9052p      8.6067f    143.7683p     12.1823n
  cdtot        6.5130f     12.7297f      5.7270f      6.5130f      1.6082f
  cgtot        4.3343f      7.7482f      4.6721f      4.3343f      2.3701f
  cstot        5.5557f     10.8987f      5.7266f      5.5557f      2.5314f
  cbtot        4.4270f      9.2736f      9.2026f      4.4270f      3.4693f
  cgs          2.0478f      3.8670f      1.7273f      2.0478f    760.2248a
  cgd          2.0610f      3.9103f      1.7316f      2.0610f    759.9589a



 subckt     xsubadc.xc   xsubadc.xc   xsubadc.xc   xsubadc.xc   xsubadc.xc
 element  112:mpm2     112:mnm1     113:mpm2     113:mnm1     114:mpm2    
 model      0:p18        0:n18        0:p18        0:n18        0:p18     
 region         Cutoff       Linear       Linear       Cutoff       Cutoff
  id        -315.0011p    338.9434p   -972.1838u      1.2360n   -315.0003p
  ibs        4.131e-26   -7.238e-26    1.218e-19   -2.646e-25    4.131e-26
  ibd         16.7423p   -7.572e-24      1.8753a    -32.7376p     16.7423p
  vgs       -744.4000n      3.6000      -3.6000      85.9228n   -644.7753n
  vds         -3.6000      85.9228n   -416.1560m      3.1838      -3.6000 
  vbs          0.           0.           0.           0.           0.     
  vth       -397.3947m    419.0454m   -452.6653m    371.9936m   -397.3947m
  vdsat      -45.3381m      1.2614      -2.0458      42.4457m    -45.3381m
  vod        397.3940m      3.1810      -3.1473    -371.9935m    397.3941m
  beta         2.7178m      1.6943m      1.2409m      4.8318m      2.7178m
  gam eff    608.2173m    766.6028m    608.2036m    766.6028m    608.2173m
  gm           8.3867n      0.          75.9708u     35.5037n      8.3866n
  gds        193.1881p      4.0209m      2.1194m      1.1170n    193.1875p
  gmb          2.6370n     26.4584p     82.7881u      8.4538n      2.6370n
  cdtot        3.6596f      6.5130f     11.1521f      1.6460f      3.6596f
  cgtot        4.6727f      4.3343f      7.7189f      2.3700f      4.6727f
  cstot        5.7275f      5.5557f     10.7184f      2.5314f      5.7275f
  cbtot        7.1366f      4.4270f      8.3958f      3.5072f      7.1366f
  cgs          1.7285f      2.0478f      4.1277f    760.1915a      1.7285f
  cgd          1.7311f      2.0610f      3.6082f    759.9594a      1.7311f



 subckt     xsubadc.xc   xsubadc.xc   xsubadc.xc   xsubadc.xc   xsubadc.xc
 element  114:mpm1     114:mnm1     114:mnm2     115:mpm2     115:mpm1    
 model      0:p18        0:n18        0:n18        0:p18        0:p18     
 region         Cutoff       Linear       Linear       Linear       Cutoff
  id        -315.0011p    677.8859p    677.8858p     -1.9171n   -877.7083a
  ibs        4.131e-26   -1.448e-25   -1.543e-23    2.486e-25      0.     
  ibd         16.7423p   -1.514e-23   -3.043e-23    5.083e-23    5.108e-23
  vgs       -744.4000n      3.6000       3.6000      -3.6000    -644.7759n
  vds         -3.6000     171.8454n    171.8454n   -744.4000n   -744.4000n
  vbs          0.           0.        -171.8454n      0.           0.     
  vth       -397.3947m    419.0454m    419.0455m   -459.1981m   -459.1981m
  vdsat      -45.3381m      1.2614       1.2614      -2.0438     -45.3538m
  vod        397.3940m      3.1810       3.1810      -3.1408     459.1974m
  beta         2.7178m      1.6943m      1.6943m      1.2382m      2.6534m
  gam eff    608.2173m    766.6028m    766.6028m    608.2173m    608.2173m
  gm           8.3867n      0.           0.          90.2005p     23.4357f
  gds        193.1881p      4.0209m      4.0209m      2.6006m      1.1791n
  gmb          2.6370n     52.9168p     52.9168p    156.9052p      8.6067f
  cdtot        3.6596f      6.5130f      6.5130f     12.7297f      5.7270f
  cgtot        4.6727f      4.3343f      4.3343f      7.7482f      4.6721f
  cstot        5.7275f      5.5557f      5.5557f     10.8987f      5.7266f
  cbtot        7.1366f      4.4270f      4.4270f      9.2736f      9.2026f
  cgs          1.7285f      2.0478f      2.0478f      3.8670f      1.7273f
  cgd          1.7311f      2.0610f      2.0610f      3.9103f      1.7316f



 subckt     xsubadc.xc   xsubadc.xc
 element  115:mnm1     115:mnm2    
 model      0:n18        0:n18     
 region         Linear       Cutoff
  id           1.8417n      1.8381n
  ibs       -3.933e-25   -4.193e-23
  ibd       -4.115e-23    -71.7255p
  vgs          3.6000    -123.1914n
  vds        466.8821n      3.6000 
  vbs          0.        -466.8821n
  vth        419.0454m    365.8436m
  vdsat        1.2614      42.4474m
  vod          3.1810    -365.8437m
  beta         1.6943m      4.8301m
  gam eff    766.6028m    766.6028m
  gm           0.          52.7101n
  gds          4.0209m      1.8360n
  gmb        143.7683p     12.1823n
  cdtot        6.5130f      1.6082f
  cgtot        4.3343f      2.3701f
  cstot        5.5557f      2.5314f
  cbtot        4.4270f      3.4693f
  cgs          2.0478f    760.2248a
  cgd          2.0610f    759.9589a



 ******  
 bandgap

  ******  transient analysis tnom=  25.000 temp=  27.000 *****
   powerall=  3.2005E-01  from=  0.0000E+00     to=  2.5000E-05

          ***** job concluded
1****** HSPICE -- F-2011.09 32-BIT (Sep  5 2011) winnt ******                   
 ******  
 bandgap

  ******  job statistics summary tnom=  25.000 temp=  27.000 *****

  ******  HSPICE Threads Information  ******

  Command Line Threads Count :     1
  Available CPU Count        :     8
  Actual Threads Count       :     1


  ******  Circuit Statistics  ******
  # nodes       =    1084 # elements   =     554
  # resistors   =      29 # capacitors =      37 # inductors   =       0
  # mutual_inds =       0 # vccs       =       0 # vcvs        =       0
  # cccs        =       0 # ccvs       =       0 # volt_srcs   =       6
  # curr_srcs   =      10 # diodes     =       0 # bjts        =       5
  # jfets       =       0 # mosfets    =     467 # U elements  =       0
  # T elements  =       0 # W elements =       0 # B elements  =       0
  # S elements  =       0 # P elements =       0 # va device   =       0
  # vector_srcs =       0


  ******  Runtime Statistics (seconds)  ******

  analysis           time    # points   tot. iter  conv.iter
  op point           0.23           1         228
  transient         14.99      250001       64611       22361 rev=      2514
  readin             0.10
  errchk             0.02
  setup              0.02
  output             0.00


           peak memory used         62.64 megabytes
           total cpu time           15.38 seconds
           total elapsed time       16.22 seconds
           job started at     20:35:41 01/08/2021
           job ended   at     20:35:57 01/08/2021


  lic: Release hspice token(s) 
